version 3
run ScenarioA-0-20241115-14:45:00-25504
attr configname ScenarioA
attr datetime 20241115-14:45:00
attr datetimef 20241115-144500
attr experiment ScenarioA
attr inifile omnetpp.ini
attr iterationvars ""
attr iterationvarsd ""
attr iterationvarsf ""
attr measurement ""
attr network ZigbeeSH
attr processid 25504
attr repetition 0
attr replication #0
attr resultdir results
attr runnumber 0
attr seedset 0
config image-path ../inet4.5/images
config extends Ieee802154
config *.radioMedium.mediumLimitCache.maxTransmissionPower 1mW
config output-vector-file results/ScenarioA-0.vec
config output-scalar-file results/ScenarioA-0.sca
config network ZigbeeSH
config sim-time-limit 100s
config **.arp.typename GlobalArp
config **.netmaskRoutes "\"\""
config *.configurator.config "xmldoc(\"topology.xml\")"
config *.configurator.addStaticRoutes true
config *.configurator.optimizeRoutes true
config *.coordinator.forwarding true
config *.radioMedium.typename Ieee802154NarrowbandScalarRadioMedium
config *.radioMedium.backgroundNoise.power -110dBm
config *.radioMedium.propagation.typename ConstantSpeedPropagation
config *.radioMedium.pathLoss.typename FreeSpacePathLoss
config *.radioMedium.mediumLimitCache.maxCommunicationRange 10m
config *.radioMedium.mediumLimitCache.maxInterferenceRange 15m
config *.radioMedium.macAddressFilter true
config *.sensor*.wlan[*].radio.typename Ieee802154NarrowbandScalarRadio
config *.lamp*.wlan[*].radio.typename Ieee802154NarrowbandScalarRadio
config *.coordinator.wlan[*].radio.typename Ieee802154NarrowbandScalarRadio
config *.*.wlan[*].radio.transmitter.power 1mW
config *.*.wlan[*].radio.receiver.sensitivity -85dBm
config *.sensor*.numApps 1
config *.sensor*.app[*].typename UdpBasicApp
config *.sensor*.app[*].destAddresses "\"coordinator\""
config *.sensor*.app[*].destPort 1000
config *.sensor*.app[*].sendInterval "uniform(0.5s, 2s)"
config *.sensor*.app[*].startTime uniform(0s,1s)
config *.sensor*.app[*].messageLength 10Byte
config *.sensor*.app[*].packetName "\"SensorData\""
config *.coordinator.numApps 2
config *.coordinator.app[0].typename UdpBasicApp
config *.coordinator.app[0].destAddresses "\"lamp1 lamp2 lamp3 lamp4 lamp5 lamp6\""
config *.coordinator.app[0].destPort 1000
config *.coordinator.app[0].sourcePort 1001
config *.coordinator.app[0].sendInterval 0.5s
config *.coordinator.app[0].startTime exponential(1s)
config *.coordinator.app[0].messageLength 10Byte
config *.coordinator.app[0].packetName "\"ControlData\""
config *.coordinator.app[1].typename UdpSink
config *.coordinator.app[1].localPort 1000
config *.lamp*.numApps 1
config *.lamp*.app[0].typename UdpSink
config *.lamp*.app[0].localPort 1000
config *.visualizer.*.routingTableVisualizer[0].displayRoutingTables false
config *.visualizer.*.routingTableVisualizer[0].displayRoutesIndividually false
config *.visualizer.*.routingTableVisualizer[0].lineShift 0
config *.visualizer.*.routingTableVisualizer[0].displayLabels false
config *.visualizer.*.interfaceTableVisualizer[0].displayInterfaceTables false
config *.visualizer.*.numDataLinkVisualizers 2
config *.visualizer.*.dataLinkVisualizer[*].displayLinks true
config *.visualizer.*.dataLinkVisualizer[0].*Color "\"green\""
config *.visualizer.*.dataLinkVisualizer[0].nodeFilter "\"sensor* or coordinator\""
config *.visualizer.*.dataLinkVisualizer[1].*Color "\"blue\""
config *.visualizer.*.dataLinkVisualizer[1].nodeFilter "\"lamp* or coordinator\""
config *.visualizer.*.mediumVisualizer.displaySignals true
config *.visualizer.*.mediumVisualizer.displayReceptions true
config *.visualizer.*.mediumVisualizer.displayTransmissions true
config *.visualizer.*.mediumVisualizer.displayCommunicationRanges true
config *.visualizer.*.mediumVisualizer.displayInterferenceRanges true
config *.visualizer.*.mediumVisualizer.signalColorAnimationSpeed 1
config *.visualizer.*.mediumVisualizer.signalPropagationAnimationSpeed 1
config *.visualizer.*.mediumVisualizer.signalTransmissionAnimationTime 1
config *.visualizer.*.numStatisticVisualizers 2
config *.visualizer.*.statisticVisualizer[*].zIndex 1
config *.visualizer.*.statisticVisualizer[0].displayStatistics true
config *.visualizer.*.statisticVisualizer[0].signalName "\"packetSent\""
config *.visualizer.*.statisticVisualizer[0].statisticExpression "\"count\""
config *.visualizer.*.statisticVisualizer[0].sourceFilter "\"**.coordinator.udp OR **.sensor*.udp\""
config *.visualizer.*.statisticVisualizer[0].format "\"sent: %v pks\""
config *.visualizer.*.statisticVisualizer[1].displayStatistics true
config *.visualizer.*.statisticVisualizer[1].signalName "\"packetReceived\""
config *.visualizer.*.statisticVisualizer[1].statisticExpression "\"count\""
config *.visualizer.*.statisticVisualizer[1].sourceFilter "\"**.coordinator.udp OR **.lamp*.udp\""
config *.visualizer.*.statisticVisualizer[1].format "\"rcvd: %v pks\""
config *.visualizer.*.statisticVisualizer[2].displayStatistics true
config *.visualizer.*.statisticVisualizer[2].signalName "\"throughput\""
config *.visualizer.*.statisticVisualizer[2].statisticExpression "\"sum\""
config *.visualizer.*.statisticVisualizer[2].sourceFilter "\"**.udp\""
config *.visualizer.*.statisticVisualizer[2].format "\"throughput: %v bps\""
config *.visualizer.*.statisticVisualizer[3].displayStatistics true
config *.visualizer.*.statisticVisualizer[3].signalName "\"packetDelay\""
config *.visualizer.*.statisticVisualizer[3].statisticExpression "\"mean\""
config *.visualizer.*.statisticVisualizer[3].sourceFilter "\"**.udp\""
config *.visualizer.*.statisticVisualizer[3].format "\"avg delay: %v s\""
config *.visualizer.*.statisticVisualizer[4].displayStatistics true
config *.visualizer.*.statisticVisualizer[4].signalName "\"packetLoss\""
config *.visualizer.*.statisticVisualizer[4].statisticExpression "\"count\""
config *.visualizer.*.statisticVisualizer[4].sourceFilter "\"**.udp\""
config *.visualizer.*.statisticVisualizer[4].format "\"packet loss: %v\""
config *.visualizer.*.statisticVisualizer[5].displayStatistics true
config *.visualizer.*.statisticVisualizer[5].signalName "\"energyConsumption\""
config *.visualizer.*.statisticVisualizer[5].statisticExpression "\"sum\""
config *.visualizer.*.statisticVisualizer[5].sourceFilter "\"**.energyStorage\""
config *.visualizer.*.statisticVisualizer[5].format "\"energy consumed: %v J\""
config *.visualizer.*.statisticVisualizer[6].displayStatistics true
config *.visualizer.*.statisticVisualizer[6].signalName "\"packetJitter\""
config *.visualizer.*.statisticVisualizer[6].statisticExpression "\"mean\""
config *.visualizer.*.statisticVisualizer[6].sourceFilter "\"**.udp\""
config *.visualizer.*.statisticVisualizer[6].format "\"avg jitter: %v s\""

par ZigbeeSH.sensor1.radioIn[0].channel typename "\"ned.IdealChannel\""
par ZigbeeSH.sensor1.energyStorage typename "\"inet.power.storage.IdealEpEnergyStorage\""
scalar ZigbeeSH.sensor1.energyStorage residualEnergyCapacity:last -0.066118892964608
attr interpolationmode linear
attr recordingmode last
attr source residualEnergyCapacityChanged
attr title "Residual energy capacity, last"
attr unit J
par ZigbeeSH.sensor1.mobility typename "\"inet.mobility.static.StationaryMobility\""
par ZigbeeSH.sensor1.mobility subjectModule "\"^\""
par ZigbeeSH.sensor1.mobility coordinateSystemModule "\"\""
par ZigbeeSH.sensor1.mobility displayStringTextFormat "\"p: %p\\nv: %v\""
attr mutable ""
par ZigbeeSH.sensor1.mobility updateDisplayString true
par ZigbeeSH.sensor1.mobility constraintAreaMinX "-inf m"
attr unit m
par ZigbeeSH.sensor1.mobility constraintAreaMinY "-inf m"
attr unit m
par ZigbeeSH.sensor1.mobility constraintAreaMinZ "-inf m"
attr unit m
par ZigbeeSH.sensor1.mobility constraintAreaMaxX "inf m"
attr unit m
par ZigbeeSH.sensor1.mobility constraintAreaMaxY "inf m"
attr unit m
par ZigbeeSH.sensor1.mobility constraintAreaMaxZ "inf m"
attr unit m
par ZigbeeSH.sensor1.mobility initialX "nan m"
attr unit m
par ZigbeeSH.sensor1.mobility initialY "nan m"
attr unit m
par ZigbeeSH.sensor1.mobility initialZ 0m
attr unit m
par ZigbeeSH.sensor1.mobility initialLatitude "nan deg"
attr unit deg
par ZigbeeSH.sensor1.mobility initialLongitude "nan deg"
attr unit deg
par ZigbeeSH.sensor1.mobility initialAltitude 0m
attr unit m
par ZigbeeSH.sensor1.mobility initialHeading 0deg
attr unit deg
par ZigbeeSH.sensor1.mobility initialElevation 0deg
attr unit deg
par ZigbeeSH.sensor1.mobility initialBank 0deg
attr unit deg
par ZigbeeSH.sensor1.mobility initFromDisplayString true
par ZigbeeSH.sensor1.mobility updateFromDisplayString true
par ZigbeeSH.sensor1.interfaceTable typename "\"inet.networklayer.common.InterfaceTable\""
par ZigbeeSH.sensor1.interfaceTable displayAddresses false
par ZigbeeSH.sensor1.cb typename "\"inet.common.MessageDispatcher\""
par ZigbeeSH.sensor1.cb displayStringTextFormat "\"processed %p pk (%l)\""
par ZigbeeSH.sensor1.cb forwardServiceRegistration true
par ZigbeeSH.sensor1.cb forwardProtocolRegistration true
par ZigbeeSH.sensor1.bl typename "\"inet.common.MessageDispatcher\""
par ZigbeeSH.sensor1.bl displayStringTextFormat "\"processed %p pk (%l)\""
par ZigbeeSH.sensor1.bl forwardServiceRegistration true
par ZigbeeSH.sensor1.bl forwardProtocolRegistration true
par ZigbeeSH.sensor1.li typename "\"inet.common.MessageDispatcher\""
par ZigbeeSH.sensor1.li displayStringTextFormat "\"processed %p pk (%l)\""
par ZigbeeSH.sensor1.li forwardServiceRegistration true
par ZigbeeSH.sensor1.li forwardProtocolRegistration true
par ZigbeeSH.sensor1.lo[0].upperLayerIn.channel typename "\"ned.IdealChannel\""
par ZigbeeSH.sensor1.lo[0].lo.upperLayerOut.channel typename "\"ned.IdealChannel\""
par ZigbeeSH.sensor1.lo[0].lo typename "\"inet.linklayer.loopback.Loopback\""
par ZigbeeSH.sensor1.lo[0].lo interfaceTableModule "\"ZigbeeSH.sensor1.interfaceTable\""
par ZigbeeSH.sensor1.lo[0].lo mtu 4470B
attr unit B
scalar ZigbeeSH.sensor1.lo[0].lo rcvdPkFromHl:count 0
attr interpolationmode none
attr recordingmode count
attr source packetReceivedFromUpper
attr title "packets received from higher layer, count"
scalar ZigbeeSH.sensor1.lo[0].lo rcvdPkFromHl:sum(packetBytes) 0
attr interpolationmode none
attr recordingmode sum(packetBytes)
attr source packetReceivedFromUpper
attr title "packets received from higher layer, sum(packetBytes)"
scalar ZigbeeSH.sensor1.lo[0].lo passedUpPk:count 0
attr interpolationmode none
attr recordingmode count
attr source packetSentToUpper
attr title "packets passed to higher layer, count"
scalar ZigbeeSH.sensor1.lo[0].lo passedUpPk:sum(packetBytes) 0
attr interpolationmode none
attr recordingmode sum(packetBytes)
attr source packetSentToUpper
attr title "packets passed to higher layer, sum(packetBytes)"
par ZigbeeSH.sensor1.lo[0] typename "\"inet.linklayer.loopback.LoopbackInterface\""
par ZigbeeSH.sensor1.lo[0] displayStringTextFormat "\"%a (%i)\\n%m\""
par ZigbeeSH.sensor1.lo[0] recordPcap false
par ZigbeeSH.sensor1.lo[0] numPcapRecorders 0
par ZigbeeSH.sensor1.lo[0] interfaceTableModule "\"ZigbeeSH.sensor1.interfaceTable\""
scalar ZigbeeSH.sensor1.lo[0] packetDropInterfaceDown:count 0
attr interpolationmode none
attr recordingmode count
attr source packetDropReasonIsInterfaceDown(packetDropped)
attr title "packet drops: interface down, count"
scalar ZigbeeSH.sensor1.lo[0] packetDropInterfaceDown:sum(packetBytes) 0
attr interpolationmode none
attr recordingmode sum(packetBytes)
attr source packetDropReasonIsInterfaceDown(packetDropped)
attr title "packet drops: interface down, sum(packetBytes)"
scalar ZigbeeSH.sensor1.lo[0] packetDropNoCarrier:count 0
attr interpolationmode none
attr recordingmode count
attr source packetDropReasonIsNoCarrier(packetDropped)
attr title "packet drops: no carrier, count"
scalar ZigbeeSH.sensor1.lo[0] packetDropNoCarrier:sum(packetBytes) 0
attr interpolationmode none
attr recordingmode sum(packetBytes)
attr source packetDropReasonIsNoCarrier(packetDropped)
attr title "packet drops: no carrier, sum(packetBytes)"
par ZigbeeSH.sensor1.wlan[0].upperLayerIn.channel typename "\"ned.IdealChannel\""
par ZigbeeSH.sensor1.wlan[0].radioIn.channel typename "\"ned.IdealChannel\""
par ZigbeeSH.sensor1.wlan[0].mac.upperLayerOut.channel typename "\"ned.IdealChannel\""
par ZigbeeSH.sensor1.wlan[0].queue typename "\"inet.queueing.queue.DropTailQueue\""
par ZigbeeSH.sensor1.wlan[0].queue displayStringTextFormat "\"contains %p pk (%l) pushed %u\\npulled %o removed %r dropped %d\""
par ZigbeeSH.sensor1.wlan[0].queue packetCapacity 100
par ZigbeeSH.sensor1.wlan[0].queue dataCapacity -1b
attr unit b
par ZigbeeSH.sensor1.wlan[0].queue dropperClass "\"inet::queueing::PacketAtCollectionEndDropper\""
par ZigbeeSH.sensor1.wlan[0].queue comparatorClass "\"\""
par ZigbeeSH.sensor1.wlan[0].queue bufferModule "\"\""
scalar ZigbeeSH.sensor1.wlan[0].queue queueLength:last 0
attr autoWarmupFilter false
attr interpolationmode sample-hold
attr recordingmode last
attr source "warmup(atomic(constant0(packetPushEnded) + count(packetPushStarted) - count(packetPulled) - count(packetRemoved) - count(packetDropped)))"
attr title "queue length, last"
attr unit pk
scalar ZigbeeSH.sensor1.wlan[0].queue queueLength:max 1
attr autoWarmupFilter false
attr interpolationmode sample-hold
attr recordingmode max
attr source "warmup(atomic(constant0(packetPushEnded) + count(packetPushStarted) - count(packetPulled) - count(packetRemoved) - count(packetDropped)))"
attr title "queue length, max"
attr unit pk
scalar ZigbeeSH.sensor1.wlan[0].queue queueLength:timeavg 0.000992
attr autoWarmupFilter false
attr interpolationmode sample-hold
attr recordingmode timeavg
attr source "warmup(atomic(constant0(packetPushEnded) + count(packetPushStarted) - count(packetPulled) - count(packetRemoved) - count(packetDropped)))"
attr title "queue length, timeavg"
attr unit pk
scalar ZigbeeSH.sensor1.wlan[0].queue queueBitLength:last 0
attr autoWarmupFilter false
attr interpolationmode sample-hold
attr recordingmode last
attr source "warmup(atomic(constant0(packetPushEnded) + sum(packetLength(packetPushStarted)) - sum(packetLength(packetPulled)) - sum(packetLength(packetRemoved)) - sum(packetLength(packetDropped))))"
attr title "queue bit length, last"
attr unit b
scalar ZigbeeSH.sensor1.wlan[0].queue queueBitLength:max 304
attr autoWarmupFilter false
attr interpolationmode sample-hold
attr recordingmode max
attr source "warmup(atomic(constant0(packetPushEnded) + sum(packetLength(packetPushStarted)) - sum(packetLength(packetPulled)) - sum(packetLength(packetRemoved)) - sum(packetLength(packetDropped))))"
attr title "queue bit length, max"
attr unit b
scalar ZigbeeSH.sensor1.wlan[0].queue queueBitLength:timeavg 0.301568
attr autoWarmupFilter false
attr interpolationmode sample-hold
attr recordingmode timeavg
attr source "warmup(atomic(constant0(packetPushEnded) + sum(packetLength(packetPushStarted)) - sum(packetLength(packetPulled)) - sum(packetLength(packetRemoved)) - sum(packetLength(packetDropped))))"
attr title "queue bit length, timeavg"
attr unit b
statistic ZigbeeSH.sensor1.wlan[0].queue queueingTime:histogram
field count 80
field mean 0.00124
field stddev 0.00073427204974585
field min 0.000128
field max 0.002368
field sum 0.0992
field sqrsum 0.00016560128
attr interpolationmode none
attr recordingmode histogram
attr source queueingTime(packetPulled)
attr title "queueing times"
attr unit s
bin	-inf	0
bin	0	0
bin	5e-05	0
bin	0.0001	11
bin	0.00015	0
bin	0.0002	0
bin	0.00025	0
bin	0.0003	0
bin	0.00035	0
bin	0.0004	9
bin	0.00045	0
bin	0.0005	0
bin	0.00055	0
bin	0.0006	0
bin	0.00065	0
bin	0.0007	0
bin	0.00075	11
bin	0.0008	0
bin	0.00085	0
bin	0.0009	0
bin	0.00095	0
bin	0.001	0
bin	0.00105	9
bin	0.0011	0
bin	0.00115	0
bin	0.0012	0
bin	0.00125	0
bin	0.0013	0
bin	0.00135	0
bin	0.0014	6
bin	0.00145	0
bin	0.0015	0
bin	0.00155	0
bin	0.0016	0
bin	0.00165	0
bin	0.0017	16
bin	0.00175	0
bin	0.0018	0
bin	0.00185	0
bin	0.0019	0
bin	0.00195	0
bin	0.002	10
bin	0.00205	0
bin	0.0021	0
bin	0.00215	0
bin	0.0022	0
bin	0.00225	0
bin	0.0023	0
bin	0.00235	8
bin	0.0024	0
bin	0.00245	0
bin	0.0025	0
bin	0.00255	0
bin	0.0026	0
bin	0.00265	0
bin	0.0027	0
bin	0.00275	0
bin	0.0028	0
bin	0.00285	0
bin	0.0029	0
bin	0.00295	0
scalar ZigbeeSH.sensor1.wlan[0].queue outgoingPackets:count 80
attr recordingmode count
attr source packetPulled
attr title "outgoing packets, count"
attr unit pk
scalar ZigbeeSH.sensor1.wlan[0].queue outgoingPacketLengths:sum 24320
attr interpolationmode none
attr recordingmode sum
attr source packetLength(packetPulled)
attr title "outgoing packet lengths, sum"
attr unit b
statistic ZigbeeSH.sensor1.wlan[0].queue outgoingPacketLengths:histogram
field count 80
field mean 304
field stddev 0
field min 304
field max 304
field sum 24320
field sqrsum 7393280
attr interpolationmode none
attr recordingmode histogram
attr source packetLength(packetPulled)
attr title "outgoing packet lengths"
attr unit b
bin	-inf	0
bin	303	0
bin	304	80
bin	305	0
statistic ZigbeeSH.sensor1.wlan[0].queue flowQueueingTime:histogram
field count 0
field mean nan
field stddev nan
field min nan
field max nan
field sum 0
field sqrsum 0
attr interpolationmode none
attr recordingmode histogram
attr source queueingTime(demuxFlow(packetPulled))
attr title "flow queueing times"
attr unit s
bin	-inf	0
bin	0	0
bin	1	0
scalar ZigbeeSH.sensor1.wlan[0].queue incomingPackets:count 80
attr recordingmode count
attr source packetPushStarted
attr title "incoming packets, count"
attr unit pk
scalar ZigbeeSH.sensor1.wlan[0].queue incomingPacketLengths:sum 24320
attr interpolationmode none
attr recordingmode sum
attr source packetLength(packetPushStarted)
attr title "incoming packet lengths, sum"
attr unit b
statistic ZigbeeSH.sensor1.wlan[0].queue incomingPacketLengths:histogram
field count 80
field mean 304
field stddev 0
field min 304
field max 304
field sum 24320
field sqrsum 7393280
attr interpolationmode none
attr recordingmode histogram
attr source packetLength(packetPushStarted)
attr title "incoming packet lengths"
attr unit b
bin	-inf	0
bin	303	0
bin	304	80
bin	305	0
scalar ZigbeeSH.sensor1.wlan[0].queue droppedPacketsQueueOverflow:count 0
attr interpolationmode none
attr recordingmode count
attr source packetDropReasonIsQueueOverflow(packetDropped)
attr title "dropped packets: queue overflow, count"
attr unit pk
scalar ZigbeeSH.sensor1.wlan[0].queue droppedPacketLengthsQueueOverflow:sum 0
attr interpolationmode none
attr recordingmode sum
attr source packetLength(packetDropReasonIsQueueOverflow(packetDropped))
attr title "dropped packet lengths: queue overflow, sum"
attr unit b
par ZigbeeSH.sensor1.wlan[0].mac typename "\"inet.linklayer.ieee802154.Ieee802154NarrowbandMac\""
par ZigbeeSH.sensor1.wlan[0].mac interfaceTableModule "\"ZigbeeSH.sensor1.interfaceTable\""
par ZigbeeSH.sensor1.wlan[0].mac address "\"auto\""
attr mutable ""
par ZigbeeSH.sensor1.wlan[0].mac headerLength 72b
attr unit b
par ZigbeeSH.sensor1.wlan[0].mac mtu 118B
attr unit B
par ZigbeeSH.sensor1.wlan[0].mac bitrate 250000bps
attr unit bps
par ZigbeeSH.sensor1.wlan[0].mac ccaDetectionTime 0.000128s
attr unit s
par ZigbeeSH.sensor1.wlan[0].mac rxSetupTime 0s
attr unit s
par ZigbeeSH.sensor1.wlan[0].mac aTurnaroundTime 0.000192s
attr unit s
par ZigbeeSH.sensor1.wlan[0].mac useMACAcks true
par ZigbeeSH.sensor1.wlan[0].mac macMaxFrameRetries 3
par ZigbeeSH.sensor1.wlan[0].mac macAckWaitDuration 0.00056s
attr unit s
par ZigbeeSH.sensor1.wlan[0].mac ackLength 40b
attr unit b
par ZigbeeSH.sensor1.wlan[0].mac sifs 0.000192s
attr unit s
par ZigbeeSH.sensor1.wlan[0].mac backoffMethod "\"exponential\""
par ZigbeeSH.sensor1.wlan[0].mac macMaxCSMABackoffs 4
par ZigbeeSH.sensor1.wlan[0].mac aUnitBackoffPeriod 0.00032s
attr unit s
par ZigbeeSH.sensor1.wlan[0].mac contentionWindow 2
par ZigbeeSH.sensor1.wlan[0].mac macMinBE 3
par ZigbeeSH.sensor1.wlan[0].mac macMaxBE 5
par ZigbeeSH.sensor1.wlan[0].mac radioModule "\"^.radio\""
scalar ZigbeeSH.sensor1.wlan[0].mac nbTxFrames 80
scalar ZigbeeSH.sensor1.wlan[0].mac nbRxFrames 0
scalar ZigbeeSH.sensor1.wlan[0].mac nbDroppedFrames 0
scalar ZigbeeSH.sensor1.wlan[0].mac nbMissedAcks 0
scalar ZigbeeSH.sensor1.wlan[0].mac nbRecvdAcks 80
scalar ZigbeeSH.sensor1.wlan[0].mac nbTxAcks 0
scalar ZigbeeSH.sensor1.wlan[0].mac nbDuplicates 0
scalar ZigbeeSH.sensor1.wlan[0].mac meanBackoff 0.001112
scalar ZigbeeSH.sensor1.wlan[0].mac nbBackoffs 80
scalar ZigbeeSH.sensor1.wlan[0].mac backoffDurations 0.08896
scalar ZigbeeSH.sensor1.wlan[0].mac packetDropNotAddressToUs:count 1054
attr interpolationmode none
attr recordingmode count
attr source packetDropReasonIsNotAddressedToUs(packetDropped)
attr title "packet drop: not addressed to us, count"
scalar ZigbeeSH.sensor1.wlan[0].mac packetDropNotAddressToUs:sum(packetBytes) 27404
attr interpolationmode none
attr recordingmode sum(packetBytes)
attr source packetDropReasonIsNotAddressedToUs(packetDropped)
attr title "packet drop: not addressed to us, sum(packetBytes)"
scalar ZigbeeSH.sensor1.wlan[0].mac packetDropIncorrectlyReceived:count 0
attr interpolationmode none
attr recordingmode count
attr source packetDropReasonIsIncorrectlyReceived(packetDropped)
attr title "packet drop: incorrectly received, count"
scalar ZigbeeSH.sensor1.wlan[0].mac packetDropIncorrectlyReceived:sum(packetBytes) 0
attr interpolationmode none
attr recordingmode sum(packetBytes)
attr source packetDropReasonIsIncorrectlyReceived(packetDropped)
attr title "packet drop: incorrectly received, sum(packetBytes)"
scalar ZigbeeSH.sensor1.wlan[0].mac packetDropQueueOverflow:count 0
attr interpolationmode none
attr recordingmode count
attr source packetDropReasonIsQueueOverflow(packetDropped)
attr title "packet drop: queue overflow, count"
scalar ZigbeeSH.sensor1.wlan[0].mac packetDropQueueOverflow:sum(packetBytes) 0
attr interpolationmode none
attr recordingmode sum(packetBytes)
attr source packetDropReasonIsQueueOverflow(packetDropped)
attr title "packet drop: queue overflow, sum(packetBytes)"
scalar ZigbeeSH.sensor1.wlan[0].mac packetDropRetryLimitReached:count 0
attr interpolationmode none
attr recordingmode count
attr source packetDropReasonIsRetryLimitReached(packetDropped)
attr title "packet drop: retry limit reached, count"
scalar ZigbeeSH.sensor1.wlan[0].mac packetDropRetryLimitReached:sum(packetBytes) 0
attr interpolationmode none
attr recordingmode sum(packetBytes)
attr source packetDropReasonIsRetryLimitReached(packetDropped)
attr title "packet drop: retry limit reached, sum(packetBytes)"
scalar ZigbeeSH.sensor1.wlan[0].mac packetDropBackoffLimitReached:count 0
attr interpolationmode none
attr recordingmode count
attr source packetDropReasonIsCongestion(packetDropped)
attr title "packet drop: backoff limit reached, count"
scalar ZigbeeSH.sensor1.wlan[0].mac packetDropBackoffLimitReached:sum(packetBytes) 0
attr interpolationmode none
attr recordingmode sum(packetBytes)
attr source packetDropReasonIsCongestion(packetDropped)
attr title "packet drop: backoff limit reached, sum(packetBytes)"
scalar ZigbeeSH.sensor1.wlan[0].mac linkBroken:count 0
attr interpolationmode none
attr recordingmode count
attr source linkBroken
attr title "link break, count"
par ZigbeeSH.sensor1.wlan[0].radio.antenna typename "\"inet.physicallayer.wireless.common.antenna.IsotropicAntenna\""
par ZigbeeSH.sensor1.wlan[0].radio.antenna mobilityModule "\"^.^.^.mobility\""
par ZigbeeSH.sensor1.wlan[0].radio.antenna numAntennas 1
par ZigbeeSH.sensor1.wlan[0].radio.transmitter typename "\"inet.physicallayer.wireless.ieee802154.packetlevel.Ieee802154NarrowbandScalarTransmitter\""
par ZigbeeSH.sensor1.wlan[0].radio.transmitter preambleDuration 0.000128s
attr unit s
par ZigbeeSH.sensor1.wlan[0].radio.transmitter headerLength 16b
attr unit b
par ZigbeeSH.sensor1.wlan[0].radio.transmitter bitrate 250000bps
attr unit bps
par ZigbeeSH.sensor1.wlan[0].radio.transmitter power 0.001W
attr unit W
par ZigbeeSH.sensor1.wlan[0].radio.transmitter centerFrequency 2.45e+09Hz
attr unit Hz
par ZigbeeSH.sensor1.wlan[0].radio.transmitter bandwidth 2.8e+06Hz
attr unit Hz
par ZigbeeSH.sensor1.wlan[0].radio.transmitter codeRate 1
par ZigbeeSH.sensor1.wlan[0].radio.transmitter modulation "\"DSSS-OQPSK-16\""
par ZigbeeSH.sensor1.wlan[0].radio.receiver.errorModel typename "\"inet.physicallayer.wireless.apsk.packetlevel.errormodel.ApskErrorModel\""
par ZigbeeSH.sensor1.wlan[0].radio.receiver.errorModel corruptionMode "\"packet\""
attr enum packet,chunk,byte,bit
par ZigbeeSH.sensor1.wlan[0].radio.receiver.errorModel snirMode "\"min\""
attr enum min,mean
par ZigbeeSH.sensor1.wlan[0].radio.receiver.errorModel snirOffset 0dB
attr unit dB
par ZigbeeSH.sensor1.wlan[0].radio.receiver typename "\"inet.physicallayer.wireless.ieee802154.packetlevel.Ieee802154NarrowbandScalarReceiver\""
par ZigbeeSH.sensor1.wlan[0].radio.receiver snirThreshold -8dB
attr unit dB
par ZigbeeSH.sensor1.wlan[0].radio.receiver snirThresholdMode "\"min\""
attr enum min,mean
par ZigbeeSH.sensor1.wlan[0].radio.receiver energyDetection -90dBm
attr unit dBm
par ZigbeeSH.sensor1.wlan[0].radio.receiver sensitivity -85dBm
attr unit dBm
par ZigbeeSH.sensor1.wlan[0].radio.receiver centerFrequency 2.45e+09Hz
attr unit Hz
par ZigbeeSH.sensor1.wlan[0].radio.receiver bandwidth 2.8e+06Hz
attr unit Hz
par ZigbeeSH.sensor1.wlan[0].radio.receiver modulation "\"DSSS-OQPSK-16\""
par ZigbeeSH.sensor1.wlan[0].radio.receiver minInterferencePower -120dBm
attr unit dBm
par ZigbeeSH.sensor1.wlan[0].radio.energyConsumer typename "\"inet.physicallayer.wireless.common.energyconsumer.SensorStateBasedEpEnergyConsumer\""
par ZigbeeSH.sensor1.wlan[0].radio.energyConsumer energySourceModule "\"ZigbeeSH.sensor1.energyStorage\""
par ZigbeeSH.sensor1.wlan[0].radio.energyConsumer offPowerConsumption 0W
attr unit W
par ZigbeeSH.sensor1.wlan[0].radio.energyConsumer sleepPowerConsumption 1e-06W
attr unit W
par ZigbeeSH.sensor1.wlan[0].radio.energyConsumer switchingPowerConsumption 0.025W
attr unit W
par ZigbeeSH.sensor1.wlan[0].radio.energyConsumer receiverIdlePowerConsumption 5e-06W
attr unit W
par ZigbeeSH.sensor1.wlan[0].radio.energyConsumer receiverBusyPowerConsumption 0.0001W
attr unit W
par ZigbeeSH.sensor1.wlan[0].radio.energyConsumer receiverReceivingPowerConsumption 0.05W
attr unit W
par ZigbeeSH.sensor1.wlan[0].radio.energyConsumer receiverReceivingPreamblePowerConsumption 0.05W
attr unit W
par ZigbeeSH.sensor1.wlan[0].radio.energyConsumer receiverReceivingHeaderPowerConsumption 0.05W
attr unit W
par ZigbeeSH.sensor1.wlan[0].radio.energyConsumer receiverReceivingDataPowerConsumption 0.05W
attr unit W
par ZigbeeSH.sensor1.wlan[0].radio.energyConsumer transmitterIdlePowerConsumption 0.005W
attr unit W
par ZigbeeSH.sensor1.wlan[0].radio.energyConsumer transmitterTransmittingPowerConsumption 0.075W
attr unit W
par ZigbeeSH.sensor1.wlan[0].radio.energyConsumer transmitterTransmittingPreamblePowerConsumption 0.075W
attr unit W
par ZigbeeSH.sensor1.wlan[0].radio.energyConsumer transmitterTransmittingHeaderPowerConsumption 0.075W
attr unit W
par ZigbeeSH.sensor1.wlan[0].radio.energyConsumer transmitterTransmittingDataPowerConsumption 0.075W
attr unit W
par ZigbeeSH.sensor1.wlan[0].radio typename "\"inet.physicallayer.wireless.ieee802154.packetlevel.Ieee802154NarrowbandScalarRadio\""
par ZigbeeSH.sensor1.wlan[0].radio radioMediumModule "\"radioMedium\""
par ZigbeeSH.sensor1.wlan[0].radio energySourceModule "\"ZigbeeSH.sensor1.energyStorage\""
par ZigbeeSH.sensor1.wlan[0].radio initialRadioMode "\"off\""
attr enum off,sleep,receiver,transmitter,transceiver
par ZigbeeSH.sensor1.wlan[0].radio switchingTimes "\"ms 0 0 0 0 0 0 0 0 0 0 0 0 0 0 0 0 0 0 0 0 0 0 0 0 0\""
par ZigbeeSH.sensor1.wlan[0].radio sendRawBytes false
par ZigbeeSH.sensor1.wlan[0].radio separateTransmissionParts false
par ZigbeeSH.sensor1.wlan[0].radio separateReceptionParts false
par ZigbeeSH.sensor1.wlan[0].radio displayCommunicationRange false
par ZigbeeSH.sensor1.wlan[0].radio displayInterferenceRange false
par ZigbeeSH.sensor1.wlan[0].radio centerFrequency 2.45e+09Hz
attr unit Hz
par ZigbeeSH.sensor1.wlan[0].radio bandwidth 2.8e+06Hz
attr unit Hz
par ZigbeeSH.sensor1.wlan[0].radio signalAnalogRepresentation "\"scalar\""
attr enum scalar,dimensional
statistic ZigbeeSH.sensor1.wlan[0].radio minSnir:histogram
field count 1134
field mean 26353.094940348
field stddev 15201.69867353
field min 7114.9263244216
field max 82343.645991644
field sum 29884409.662354
field sqrsum 1049373516089.7
attr recordingmode histogram
attr source minimumSnir(packetSentToUpper)
attr title "Min SNIR"
bin	-inf	0
bin	0	0
bin	2000	0
bin	4000	0
bin	6000	159
bin	8000	68
bin	10000	24
bin	12000	82
bin	14000	0
bin	16000	44
bin	18000	0
bin	20000	0
bin	22000	87
bin	24000	0
bin	26000	0
bin	28000	0
bin	30000	0
bin	32000	607
bin	34000	0
bin	36000	0
bin	38000	0
bin	40000	0
bin	42000	0
bin	44000	0
bin	46000	0
bin	48000	0
bin	50000	0
bin	52000	0
bin	54000	0
bin	56000	27
bin	58000	0
bin	60000	0
bin	62000	0
bin	64000	0
bin	66000	0
bin	68000	0
bin	70000	0
bin	72000	0
bin	74000	0
bin	76000	0
bin	78000	0
bin	80000	0
bin	82000	36
bin	84000	0
bin	86000	0
bin	88000	0
bin	90000	0
bin	92000	0
bin	94000	0
bin	96000	0
bin	98000	0
bin	100000	0
bin	102000	0
statistic ZigbeeSH.sensor1.wlan[0].radio packetErrorRate:histogram
field count 1134
field mean 0
field stddev 0
field min 0
field max 0
field sum 0
field sqrsum 0
attr recordingmode histogram
attr source packetErrorRate(packetSentToUpper)
attr title "Packet error rate"
bin	-inf	0
bin	-0.5	0
bin	-0.48	0
bin	-0.46	0
bin	-0.44	0
bin	-0.42	0
bin	-0.4	0
bin	-0.38	0
bin	-0.36	0
bin	-0.34	0
bin	-0.32	0
bin	-0.3	0
bin	-0.28	0
bin	-0.26	0
bin	-0.24	0
bin	-0.22	0
bin	-0.2	0
bin	-0.18	0
bin	-0.16	0
bin	-0.14	0
bin	-0.12	0
bin	-0.1	0
bin	-0.08	0
bin	-0.06	0
bin	-0.04	0
bin	-0.02	0
bin	0	1134
bin	0.02	0
bin	0.04	0
bin	0.06	0
bin	0.08	0
bin	0.1	0
bin	0.12	0
bin	0.14	0
bin	0.16	0
bin	0.18	0
bin	0.2	0
bin	0.22	0
bin	0.24	0
bin	0.26	0
bin	0.28	0
bin	0.3	0
bin	0.32	0
bin	0.34	0
bin	0.36	0
bin	0.38	0
bin	0.4	0
bin	0.42	0
bin	0.44	0
bin	0.46	0
bin	0.48	0
bin	0.5	0
statistic ZigbeeSH.sensor1.wlan[0].radio bitErrorRate:histogram
field count 1134
field mean 0
field stddev 0
field min 0
field max 0
field sum 0
field sqrsum 0
attr recordingmode histogram
attr source bitErrorRate(packetSentToUpper)
attr title "Bit error rate"
bin	-inf	0
bin	-0.5	0
bin	-0.48	0
bin	-0.46	0
bin	-0.44	0
bin	-0.42	0
bin	-0.4	0
bin	-0.38	0
bin	-0.36	0
bin	-0.34	0
bin	-0.32	0
bin	-0.3	0
bin	-0.28	0
bin	-0.26	0
bin	-0.24	0
bin	-0.22	0
bin	-0.2	0
bin	-0.18	0
bin	-0.16	0
bin	-0.14	0
bin	-0.12	0
bin	-0.1	0
bin	-0.08	0
bin	-0.06	0
bin	-0.04	0
bin	-0.02	0
bin	0	1134
bin	0.02	0
bin	0.04	0
bin	0.06	0
bin	0.08	0
bin	0.1	0
bin	0.12	0
bin	0.14	0
bin	0.16	0
bin	0.18	0
bin	0.2	0
bin	0.22	0
bin	0.24	0
bin	0.26	0
bin	0.28	0
bin	0.3	0
bin	0.32	0
bin	0.34	0
bin	0.36	0
bin	0.38	0
bin	0.4	0
bin	0.42	0
bin	0.44	0
bin	0.46	0
bin	0.48	0
bin	0.5	0
statistic ZigbeeSH.sensor1.wlan[0].radio symbolErrorRate:histogram
field count 0
field mean nan
field stddev nan
field min nan
field max nan
field sum 0
field sqrsum 0
attr recordingmode histogram
attr source symbolErrorRate(packetSentToUpper)
attr title "Symbol error rate"
bin	-inf	0
bin	0	0
bin	1	0
scalar ZigbeeSH.sensor1.wlan[0].radio transmissionState:count 320
attr interpolationmode sample-hold
attr recordingmode count
attr source transmissionStateChanged
attr title "Radio transmission state, count"
scalar ZigbeeSH.sensor1.wlan[0].radio receptionState:count 2429
attr interpolationmode sample-hold
attr recordingmode count
attr source receptionStateChanged
attr title "Radio reception state, count"
scalar ZigbeeSH.sensor1.wlan[0].radio radioMode:count 163
attr interpolationmode sample-hold
attr recordingmode count
attr source radioModeChanged
attr title "Radio mode, count"
par ZigbeeSH.sensor1.wlan[0] typename "\"inet.linklayer.ieee802154.Ieee802154NarrowbandInterface\""
par ZigbeeSH.sensor1.wlan[0] displayStringTextFormat "\"%a (%i)\\n%m\""
par ZigbeeSH.sensor1.wlan[0] recordPcap false
par ZigbeeSH.sensor1.wlan[0] numPcapRecorders 0
par ZigbeeSH.sensor1.wlan[0] interfaceTableModule "\"ZigbeeSH.sensor1.interfaceTable\""
par ZigbeeSH.sensor1.wlan[0] energySourceModule "\"ZigbeeSH.sensor1.energyStorage\""
scalar ZigbeeSH.sensor1.wlan[0] packetDropInterfaceDown:count 0
attr interpolationmode none
attr recordingmode count
attr source packetDropReasonIsInterfaceDown(packetDropped)
attr title "packet drops: interface down, count"
scalar ZigbeeSH.sensor1.wlan[0] packetDropInterfaceDown:sum(packetBytes) 0
attr interpolationmode none
attr recordingmode sum(packetBytes)
attr source packetDropReasonIsInterfaceDown(packetDropped)
attr title "packet drops: interface down, sum(packetBytes)"
scalar ZigbeeSH.sensor1.wlan[0] packetDropNoCarrier:count 0
attr interpolationmode none
attr recordingmode count
attr source packetDropReasonIsNoCarrier(packetDropped)
attr title "packet drops: no carrier, count"
scalar ZigbeeSH.sensor1.wlan[0] packetDropNoCarrier:sum(packetBytes) 0
attr interpolationmode none
attr recordingmode sum(packetBytes)
attr source packetDropReasonIsNoCarrier(packetDropped)
attr title "packet drops: no carrier, sum(packetBytes)"
par ZigbeeSH.sensor1.ipv4.transportIn.channel typename "\"ned.IdealChannel\""
par ZigbeeSH.sensor1.ipv4.up.out[0].channel typename "\"ned.IdealChannel\""
par ZigbeeSH.sensor1.ipv4.lp.out[2].channel typename "\"ned.IdealChannel\""
par ZigbeeSH.sensor1.ipv4.ifIn.channel typename "\"ned.IdealChannel\""
par ZigbeeSH.sensor1.ipv4.configurator typename "\"inet.networklayer.configurator.ipv4.Ipv4NodeConfigurator\""
par ZigbeeSH.sensor1.ipv4.configurator interfaceTableModule "\"ZigbeeSH.sensor1.interfaceTable\""
par ZigbeeSH.sensor1.ipv4.configurator routingTableModule "\"ZigbeeSH.sensor1.ipv4.routingTable\""
par ZigbeeSH.sensor1.ipv4.configurator networkConfiguratorModule "\"configurator\""
par ZigbeeSH.sensor1.ipv4.configurator configureRoutingTable true
par ZigbeeSH.sensor1.ipv4.routingTable typename "\"inet.networklayer.ipv4.Ipv4RoutingTable\""
par ZigbeeSH.sensor1.ipv4.routingTable interfaceTableModule "\"ZigbeeSH.sensor1.interfaceTable\""
par ZigbeeSH.sensor1.ipv4.routingTable routerId "\"auto\""
par ZigbeeSH.sensor1.ipv4.routingTable netmaskRoutes "\"\""
par ZigbeeSH.sensor1.ipv4.routingTable forwarding false
par ZigbeeSH.sensor1.ipv4.routingTable multicastForwarding false
par ZigbeeSH.sensor1.ipv4.routingTable useAdminDist false
par ZigbeeSH.sensor1.ipv4.routingTable routingFile "\"\""
par ZigbeeSH.sensor1.ipv4.natTable typename "\"inet.networklayer.ipv4.Ipv4NatTable\""
par ZigbeeSH.sensor1.ipv4.natTable networkProtocolModule "\"^.ip\""
par ZigbeeSH.sensor1.ipv4.natTable config "<config/> at content:1"
par ZigbeeSH.sensor1.ipv4.up typename "\"inet.common.MessageDispatcher\""
par ZigbeeSH.sensor1.ipv4.up displayStringTextFormat "\"processed %p pk (%l)\""
par ZigbeeSH.sensor1.ipv4.up forwardServiceRegistration true
par ZigbeeSH.sensor1.ipv4.up forwardProtocolRegistration true
par ZigbeeSH.sensor1.ipv4.igmp typename "\"inet.networklayer.ipv4.Igmpv2\""
par ZigbeeSH.sensor1.ipv4.igmp interfaceTableModule "\"ZigbeeSH.sensor1.interfaceTable\""
par ZigbeeSH.sensor1.ipv4.igmp routingTableModule "\"ZigbeeSH.sensor1.ipv4.routingTable\""
par ZigbeeSH.sensor1.ipv4.igmp crcMode "\"declared\""
attr enum declared,computed
par ZigbeeSH.sensor1.ipv4.igmp enabled true
par ZigbeeSH.sensor1.ipv4.igmp robustnessVariable 2
par ZigbeeSH.sensor1.ipv4.igmp queryInterval 125s
attr unit s
par ZigbeeSH.sensor1.ipv4.igmp queryResponseInterval 10s
attr unit s
par ZigbeeSH.sensor1.ipv4.igmp groupMembershipInterval 260s
attr unit s
par ZigbeeSH.sensor1.ipv4.igmp otherQuerierPresentInterval 255s
attr unit s
par ZigbeeSH.sensor1.ipv4.igmp startupQueryInterval 31.25s
attr unit s
par ZigbeeSH.sensor1.ipv4.igmp startupQueryCount 2
par ZigbeeSH.sensor1.ipv4.igmp lastMemberQueryInterval 1s
attr unit s
par ZigbeeSH.sensor1.ipv4.igmp lastMemberQueryCount 2
par ZigbeeSH.sensor1.ipv4.igmp unsolicitedReportInterval 10s
attr unit s
par ZigbeeSH.sensor1.ipv4.icmp typename "\"inet.networklayer.ipv4.Icmp\""
par ZigbeeSH.sensor1.ipv4.icmp interfaceTableModule "\"ZigbeeSH.sensor1.interfaceTable\""
par ZigbeeSH.sensor1.ipv4.icmp routingTableModule "\"ZigbeeSH.sensor1.ipv4.routingTable\""
par ZigbeeSH.sensor1.ipv4.icmp crcMode "\"declared\""
attr enum declared,computed
attr mutable ""
par ZigbeeSH.sensor1.ipv4.icmp quoteLength 8B
attr mutable ""
attr unit B
par ZigbeeSH.sensor1.ipv4.mp typename "\"inet.common.MessageDispatcher\""
par ZigbeeSH.sensor1.ipv4.mp displayStringTextFormat "\"processed %p pk (%l)\""
par ZigbeeSH.sensor1.ipv4.mp forwardServiceRegistration true
par ZigbeeSH.sensor1.ipv4.mp forwardProtocolRegistration true
par ZigbeeSH.sensor1.ipv4.ip typename "\"inet.networklayer.ipv4.Ipv4\""
par ZigbeeSH.sensor1.ipv4.ip interfaceTableModule "\"ZigbeeSH.sensor1.interfaceTable\""
par ZigbeeSH.sensor1.ipv4.ip routingTableModule "\"ZigbeeSH.sensor1.ipv4.routingTable\""
par ZigbeeSH.sensor1.ipv4.ip arpModule "\"ZigbeeSH.sensor1.ipv4.arp\""
par ZigbeeSH.sensor1.ipv4.ip icmpModule "\"ZigbeeSH.sensor1.ipv4.icmp\""
par ZigbeeSH.sensor1.ipv4.ip crcMode "\"declared\""
attr enum declared,computed
par ZigbeeSH.sensor1.ipv4.ip timeToLive 32
par ZigbeeSH.sensor1.ipv4.ip multicastTimeToLive 32
par ZigbeeSH.sensor1.ipv4.ip fragmentTimeout 60s
attr unit s
par ZigbeeSH.sensor1.ipv4.ip limitedBroadcast false
par ZigbeeSH.sensor1.ipv4.ip directBroadcastInterfaces "\"\""
scalar ZigbeeSH.sensor1.ipv4.ip packetDropAddressResolutionFailed:count 0
attr interpolationmode none
attr recordingmode count
attr source packetDropReasonIsAddressResolutionFailed(packetDropped)
attr title "packet drop: address resolution failed, count"
scalar ZigbeeSH.sensor1.ipv4.ip packetDropAddressResolutionFailed:sum(packetBytes) 0
attr interpolationmode none
attr recordingmode sum(packetBytes)
attr source packetDropReasonIsAddressResolutionFailed(packetDropped)
attr title "packet drop: address resolution failed, sum(packetBytes)"
scalar ZigbeeSH.sensor1.ipv4.ip packetDropHopLimitReached:count 0
attr interpolationmode none
attr recordingmode count
attr source packetDropReasonIsHopLimitReached(packetDropped)
attr title "packet drop: hop limit reached, count"
scalar ZigbeeSH.sensor1.ipv4.ip packetDropHopLimitReached:sum(packetBytes) 0
attr interpolationmode none
attr recordingmode sum(packetBytes)
attr source packetDropReasonIsHopLimitReached(packetDropped)
attr title "packet drop: hop limit reached, sum(packetBytes)"
scalar ZigbeeSH.sensor1.ipv4.ip packetDropForwardingDisabled:count 0
attr interpolationmode none
attr recordingmode count
attr source packetDropReasonIsForwardingDisabled(packetDropped)
attr title "packet drop: forwarding disabled, count"
scalar ZigbeeSH.sensor1.ipv4.ip packetDropForwardingDisabled:sum(packetBytes) 0
attr interpolationmode none
attr recordingmode sum(packetBytes)
attr source packetDropReasonIsForwardingDisabled(packetDropped)
attr title "packet drop: forwarding disabled, sum(packetBytes)"
scalar ZigbeeSH.sensor1.ipv4.ip packetDropNoInterfaceFound:count 0
attr interpolationmode none
attr recordingmode count
attr source packetDropReasonIsNoInterfaceFound(packetDropped)
attr title "packet drop: no interface found, count"
scalar ZigbeeSH.sensor1.ipv4.ip packetDropNoInterfaceFound:sum(packetBytes) 0
attr interpolationmode none
attr recordingmode sum(packetBytes)
attr source packetDropReasonIsNoInterfaceFound(packetDropped)
attr title "packet drop: no interface found, sum(packetBytes)"
scalar ZigbeeSH.sensor1.ipv4.ip packetDropNoRouteFound:count 0
attr interpolationmode none
attr recordingmode count
attr source packetDropReasonIsNoRouteFound(packetDropped)
attr title "packet drop: no route found, count"
scalar ZigbeeSH.sensor1.ipv4.ip packetDropNoRouteFound:sum(packetBytes) 0
attr interpolationmode none
attr recordingmode sum(packetBytes)
attr source packetDropReasonIsNoRouteFound(packetDropped)
attr title "packet drop: no route found, sum(packetBytes)"
scalar ZigbeeSH.sensor1.ipv4.ip packetDropUndefined:count 0
attr interpolationmode none
attr recordingmode count
attr source packetDropReasonIsUndefined(packetDropped)
attr title "packet drop: undefined, count"
scalar ZigbeeSH.sensor1.ipv4.ip packetDropUndefined:sum(packetBytes) 0
attr interpolationmode none
attr recordingmode sum(packetBytes)
attr source packetDropReasonIsUndefined(packetDropped)
attr title "packet drop: undefined, sum(packetBytes)"
par ZigbeeSH.sensor1.ipv4.arp typename "\"inet.networklayer.arp.ipv4.GlobalArp\""
par ZigbeeSH.sensor1.ipv4.arp interfaceTableModule "\"ZigbeeSH.sensor1.interfaceTable\""
par ZigbeeSH.sensor1.ipv4.arp addressType "\"ipv4\""
attr enum ipv4,ipv6,mac,moduleid,modulepath
par ZigbeeSH.sensor1.ipv4.lp typename "\"inet.common.MessageDispatcher\""
par ZigbeeSH.sensor1.ipv4.lp displayStringTextFormat "\"processed %p pk (%l)\""
par ZigbeeSH.sensor1.ipv4.lp forwardServiceRegistration true
par ZigbeeSH.sensor1.ipv4.lp forwardProtocolRegistration true
par ZigbeeSH.sensor1.ipv4 typename "\"inet.networklayer.ipv4.Ipv4NetworkLayer\""
par ZigbeeSH.sensor1.ipv4 forwarding false
par ZigbeeSH.sensor1.ipv4 multicastForwarding false
par ZigbeeSH.sensor1.ipv4 interfaceTableModule "\"ZigbeeSH.sensor1.interfaceTable\""
par ZigbeeSH.sensor1.ipv4 displayStringTextFormat "\"%i\""
par ZigbeeSH.sensor1.nl typename "\"inet.common.MessageDispatcher\""
par ZigbeeSH.sensor1.nl displayStringTextFormat "\"processed %p pk (%l)\""
par ZigbeeSH.sensor1.nl forwardServiceRegistration true
par ZigbeeSH.sensor1.nl forwardProtocolRegistration true
par ZigbeeSH.sensor1.udp typename "\"inet.transportlayer.udp.Udp\""
par ZigbeeSH.sensor1.udp interfaceTableModule "\"ZigbeeSH.sensor1.interfaceTable\""
par ZigbeeSH.sensor1.udp icmpModule "\"^.ipv4.icmp\""
par ZigbeeSH.sensor1.udp icmpv6Module "\"^.ipv6.icmpv6\""
par ZigbeeSH.sensor1.udp crcMode "\"declared\""
attr enum disabled,declared,computed
par ZigbeeSH.sensor1.udp defaultMulticastLoop true
scalar ZigbeeSH.sensor1.udp packetReceived:count 0
attr interpolationmode none
attr recordingmode count
attr source packetReceived
attr title "packets received, count"
scalar ZigbeeSH.sensor1.udp packetReceived:sum(packetBytes) 0
attr interpolationmode none
attr recordingmode sum(packetBytes)
attr source packetReceived
attr title "packets received, sum(packetBytes)"
scalar ZigbeeSH.sensor1.udp packetSent:count 80
attr interpolationmode none
attr recordingmode count
attr source packetSent
attr title "packets sent, count"
scalar ZigbeeSH.sensor1.udp packetSent:sum(packetBytes) 1440
attr interpolationmode none
attr recordingmode sum(packetBytes)
attr source packetSent
attr title "packets sent, sum(packetBytes)"
scalar ZigbeeSH.sensor1.udp passedUpPk:count 0
attr interpolationmode none
attr recordingmode count
attr source packetSentToUpper
attr title "packets passed up, count"
scalar ZigbeeSH.sensor1.udp droppedPkWrongPort:count 0
attr interpolationmode none
attr recordingmode count
attr source packetDropReasonIsNoPortFound(packetDropped)
attr title "packets dropped (wrong port), count"
scalar ZigbeeSH.sensor1.udp droppedPkBadChecksum:count 0
attr interpolationmode none
attr recordingmode count
attr source packetDropReasonIsIncorrectlyReceived(packetDropped)
attr title "packets dropped (checksum error), count"
par ZigbeeSH.sensor1.tcp typename "\"inet.transportlayer.tcp.Tcp\""
par ZigbeeSH.sensor1.tcp crcMode "\"declared\""
attr enum declared,computed
par ZigbeeSH.sensor1.tcp advertisedWindow 7504
par ZigbeeSH.sensor1.tcp delayedAcksEnabled false
par ZigbeeSH.sensor1.tcp nagleEnabled true
par ZigbeeSH.sensor1.tcp limitedTransmitEnabled false
par ZigbeeSH.sensor1.tcp increasedIWEnabled false
par ZigbeeSH.sensor1.tcp sackSupport false
par ZigbeeSH.sensor1.tcp windowScalingSupport false
par ZigbeeSH.sensor1.tcp windowScalingFactor -1
par ZigbeeSH.sensor1.tcp timestampSupport false
par ZigbeeSH.sensor1.tcp mss 536
par ZigbeeSH.sensor1.tcp msl 120s
attr unit s
par ZigbeeSH.sensor1.tcp tcpAlgorithmClass "\"TcpReno\""
attr enum TcpVegas,TcpWestwood,TcpNewReno,TcpReno,TcpTahoe,TcpNoCongestionControl
par ZigbeeSH.sensor1.tcp useDataNotification false
par ZigbeeSH.sensor1.tcp dupthresh 3
par ZigbeeSH.sensor1.tcp initialSsthresh 4294967295
par ZigbeeSH.sensor1.tcp stopOperationExtraTime 0s
attr unit s
par ZigbeeSH.sensor1.tcp stopOperationTimeout 2s
attr unit s
par ZigbeeSH.sensor1.tcp ecnWillingness false
par ZigbeeSH.sensor1.tcp dctcpGamma 0.0625
par ZigbeeSH.sensor1.tn typename "\"inet.common.MessageDispatcher\""
par ZigbeeSH.sensor1.tn displayStringTextFormat "\"processed %p pk (%l)\""
par ZigbeeSH.sensor1.tn forwardServiceRegistration true
par ZigbeeSH.sensor1.tn forwardProtocolRegistration true
par ZigbeeSH.sensor1.app[0] typename "\"inet.applications.udpapp.UdpBasicApp\""
par ZigbeeSH.sensor1.app[0] interfaceTableModule "\"ZigbeeSH.sensor1.interfaceTable\""
par ZigbeeSH.sensor1.app[0] clockModule "\"\""
par ZigbeeSH.sensor1.app[0] localPort -1
par ZigbeeSH.sensor1.app[0] destAddresses "\"coordinator\""
par ZigbeeSH.sensor1.app[0] localAddress "\"\""
par ZigbeeSH.sensor1.app[0] packetName "\"SensorData\""
par ZigbeeSH.sensor1.app[0] destPort 1000
par ZigbeeSH.sensor1.app[0] messageLength 10B
attr unit B
par ZigbeeSH.sensor1.app[0] startTime 0.844266s
attr unit s
par ZigbeeSH.sensor1.app[0] stopTime -1s
attr unit s
par ZigbeeSH.sensor1.app[0] sendInterval "uniform(0.5s, 2s)"
attr unit s
par ZigbeeSH.sensor1.app[0] timeToLive -1
par ZigbeeSH.sensor1.app[0] dontFragment false
par ZigbeeSH.sensor1.app[0] dscp -1
par ZigbeeSH.sensor1.app[0] tos -1
par ZigbeeSH.sensor1.app[0] multicastInterface "\"\""
par ZigbeeSH.sensor1.app[0] receiveBroadcast false
par ZigbeeSH.sensor1.app[0] joinLocalMulticastGroups false
par ZigbeeSH.sensor1.app[0] stopOperationExtraTime -1s
attr unit s
par ZigbeeSH.sensor1.app[0] stopOperationTimeout 2s
attr unit s
scalar ZigbeeSH.sensor1.app[0] "packets sent" 80
scalar ZigbeeSH.sensor1.app[0] "packets received" 0
scalar ZigbeeSH.sensor1.app[0] packetReceived:count 0
attr interpolationmode none
attr recordingmode count
attr source packetReceived
attr title "packets received, count"
scalar ZigbeeSH.sensor1.app[0] packetReceived:sum(packetBytes) 0
attr interpolationmode none
attr recordingmode sum(packetBytes)
attr source packetReceived
attr title "packets received, sum(packetBytes)"
statistic ZigbeeSH.sensor1.app[0] rcvdPkLifetime:stats
field count 0
field mean nan
field stddev nan
field min nan
field max nan
field sum 0
field sqrsum 0
attr interpolationmode none
attr recordingmode stats
attr source dataAge(packetReceived)
attr title "received packet lifetime"
attr unit s
scalar ZigbeeSH.sensor1.app[0] packetSent:count 80
attr interpolationmode none
attr recordingmode count
attr source packetSent
attr title "packets sent, count"
scalar ZigbeeSH.sensor1.app[0] packetSent:sum(packetBytes) 800
attr interpolationmode none
attr recordingmode sum(packetBytes)
attr source packetSent
attr title "packets sent, sum(packetBytes)"
par ZigbeeSH.sensor1.at typename "\"inet.common.MessageDispatcher\""
par ZigbeeSH.sensor1.at displayStringTextFormat "\"processed %p pk (%l)\""
par ZigbeeSH.sensor1.at forwardServiceRegistration true
par ZigbeeSH.sensor1.at forwardProtocolRegistration true
par ZigbeeSH.sensor1 typename "\"inet.node.inet.SensorNode\""
par ZigbeeSH.sensor1 hasStatus false
par ZigbeeSH.sensor1 osgModel "\"\""
par ZigbeeSH.sensor1 osgModelColor "\"\""
par ZigbeeSH.sensor1 canvasImage "\"\""
par ZigbeeSH.sensor1 canvasImageColor "\"\""
par ZigbeeSH.sensor1 recordPcap false
par ZigbeeSH.sensor1 numPcapRecorders 0
par ZigbeeSH.sensor1 numLoInterfaces 1
par ZigbeeSH.sensor1 numWlanInterfaces 1
par ZigbeeSH.sensor1 numEthInterfaces 0
par ZigbeeSH.sensor1 numPppInterfaces 0
par ZigbeeSH.sensor1 numTunInterfaces 0
par ZigbeeSH.sensor1 numVirtInterfaces 0
par ZigbeeSH.sensor1 fcsMode "\"declared\""
attr enum declared,computed
par ZigbeeSH.sensor1 hasIpv4 true
par ZigbeeSH.sensor1 hasIpv6 false
par ZigbeeSH.sensor1 hasGn false
par ZigbeeSH.sensor1 forwarding false
par ZigbeeSH.sensor1 multicastForwarding false
par ZigbeeSH.sensor1 hasUdp true
par ZigbeeSH.sensor1 hasTcp true
par ZigbeeSH.sensor1 hasSctp false
par ZigbeeSH.sensor1 numApps 1
par ZigbeeSH.sensor2.radioIn[0].channel typename "\"ned.IdealChannel\""
par ZigbeeSH.sensor2.energyStorage typename "\"inet.power.storage.IdealEpEnergyStorage\""
scalar ZigbeeSH.sensor2.energyStorage residualEnergyCapacity:last -0.066422406244445
attr interpolationmode linear
attr recordingmode last
attr source residualEnergyCapacityChanged
attr title "Residual energy capacity, last"
attr unit J
par ZigbeeSH.sensor2.mobility typename "\"inet.mobility.static.StationaryMobility\""
par ZigbeeSH.sensor2.mobility subjectModule "\"^\""
par ZigbeeSH.sensor2.mobility coordinateSystemModule "\"\""
par ZigbeeSH.sensor2.mobility displayStringTextFormat "\"p: %p\\nv: %v\""
attr mutable ""
par ZigbeeSH.sensor2.mobility updateDisplayString true
par ZigbeeSH.sensor2.mobility constraintAreaMinX "-inf m"
attr unit m
par ZigbeeSH.sensor2.mobility constraintAreaMinY "-inf m"
attr unit m
par ZigbeeSH.sensor2.mobility constraintAreaMinZ "-inf m"
attr unit m
par ZigbeeSH.sensor2.mobility constraintAreaMaxX "inf m"
attr unit m
par ZigbeeSH.sensor2.mobility constraintAreaMaxY "inf m"
attr unit m
par ZigbeeSH.sensor2.mobility constraintAreaMaxZ "inf m"
attr unit m
par ZigbeeSH.sensor2.mobility initialX "nan m"
attr unit m
par ZigbeeSH.sensor2.mobility initialY "nan m"
attr unit m
par ZigbeeSH.sensor2.mobility initialZ 0m
attr unit m
par ZigbeeSH.sensor2.mobility initialLatitude "nan deg"
attr unit deg
par ZigbeeSH.sensor2.mobility initialLongitude "nan deg"
attr unit deg
par ZigbeeSH.sensor2.mobility initialAltitude 0m
attr unit m
par ZigbeeSH.sensor2.mobility initialHeading 0deg
attr unit deg
par ZigbeeSH.sensor2.mobility initialElevation 0deg
attr unit deg
par ZigbeeSH.sensor2.mobility initialBank 0deg
attr unit deg
par ZigbeeSH.sensor2.mobility initFromDisplayString true
par ZigbeeSH.sensor2.mobility updateFromDisplayString true
par ZigbeeSH.sensor2.interfaceTable typename "\"inet.networklayer.common.InterfaceTable\""
par ZigbeeSH.sensor2.interfaceTable displayAddresses false
par ZigbeeSH.sensor2.cb typename "\"inet.common.MessageDispatcher\""
par ZigbeeSH.sensor2.cb displayStringTextFormat "\"processed %p pk (%l)\""
par ZigbeeSH.sensor2.cb forwardServiceRegistration true
par ZigbeeSH.sensor2.cb forwardProtocolRegistration true
par ZigbeeSH.sensor2.bl typename "\"inet.common.MessageDispatcher\""
par ZigbeeSH.sensor2.bl displayStringTextFormat "\"processed %p pk (%l)\""
par ZigbeeSH.sensor2.bl forwardServiceRegistration true
par ZigbeeSH.sensor2.bl forwardProtocolRegistration true
par ZigbeeSH.sensor2.li typename "\"inet.common.MessageDispatcher\""
par ZigbeeSH.sensor2.li displayStringTextFormat "\"processed %p pk (%l)\""
par ZigbeeSH.sensor2.li forwardServiceRegistration true
par ZigbeeSH.sensor2.li forwardProtocolRegistration true
par ZigbeeSH.sensor2.lo[0].upperLayerIn.channel typename "\"ned.IdealChannel\""
par ZigbeeSH.sensor2.lo[0].lo.upperLayerOut.channel typename "\"ned.IdealChannel\""
par ZigbeeSH.sensor2.lo[0].lo typename "\"inet.linklayer.loopback.Loopback\""
par ZigbeeSH.sensor2.lo[0].lo interfaceTableModule "\"ZigbeeSH.sensor2.interfaceTable\""
par ZigbeeSH.sensor2.lo[0].lo mtu 4470B
attr unit B
scalar ZigbeeSH.sensor2.lo[0].lo rcvdPkFromHl:count 0
attr interpolationmode none
attr recordingmode count
attr source packetReceivedFromUpper
attr title "packets received from higher layer, count"
scalar ZigbeeSH.sensor2.lo[0].lo rcvdPkFromHl:sum(packetBytes) 0
attr interpolationmode none
attr recordingmode sum(packetBytes)
attr source packetReceivedFromUpper
attr title "packets received from higher layer, sum(packetBytes)"
scalar ZigbeeSH.sensor2.lo[0].lo passedUpPk:count 0
attr interpolationmode none
attr recordingmode count
attr source packetSentToUpper
attr title "packets passed to higher layer, count"
scalar ZigbeeSH.sensor2.lo[0].lo passedUpPk:sum(packetBytes) 0
attr interpolationmode none
attr recordingmode sum(packetBytes)
attr source packetSentToUpper
attr title "packets passed to higher layer, sum(packetBytes)"
par ZigbeeSH.sensor2.lo[0] typename "\"inet.linklayer.loopback.LoopbackInterface\""
par ZigbeeSH.sensor2.lo[0] displayStringTextFormat "\"%a (%i)\\n%m\""
par ZigbeeSH.sensor2.lo[0] recordPcap false
par ZigbeeSH.sensor2.lo[0] numPcapRecorders 0
par ZigbeeSH.sensor2.lo[0] interfaceTableModule "\"ZigbeeSH.sensor2.interfaceTable\""
scalar ZigbeeSH.sensor2.lo[0] packetDropInterfaceDown:count 0
attr interpolationmode none
attr recordingmode count
attr source packetDropReasonIsInterfaceDown(packetDropped)
attr title "packet drops: interface down, count"
scalar ZigbeeSH.sensor2.lo[0] packetDropInterfaceDown:sum(packetBytes) 0
attr interpolationmode none
attr recordingmode sum(packetBytes)
attr source packetDropReasonIsInterfaceDown(packetDropped)
attr title "packet drops: interface down, sum(packetBytes)"
scalar ZigbeeSH.sensor2.lo[0] packetDropNoCarrier:count 0
attr interpolationmode none
attr recordingmode count
attr source packetDropReasonIsNoCarrier(packetDropped)
attr title "packet drops: no carrier, count"
scalar ZigbeeSH.sensor2.lo[0] packetDropNoCarrier:sum(packetBytes) 0
attr interpolationmode none
attr recordingmode sum(packetBytes)
attr source packetDropReasonIsNoCarrier(packetDropped)
attr title "packet drops: no carrier, sum(packetBytes)"
par ZigbeeSH.sensor2.wlan[0].upperLayerIn.channel typename "\"ned.IdealChannel\""
par ZigbeeSH.sensor2.wlan[0].radioIn.channel typename "\"ned.IdealChannel\""
par ZigbeeSH.sensor2.wlan[0].mac.upperLayerOut.channel typename "\"ned.IdealChannel\""
par ZigbeeSH.sensor2.wlan[0].queue typename "\"inet.queueing.queue.DropTailQueue\""
par ZigbeeSH.sensor2.wlan[0].queue displayStringTextFormat "\"contains %p pk (%l) pushed %u\\npulled %o removed %r dropped %d\""
par ZigbeeSH.sensor2.wlan[0].queue packetCapacity 100
par ZigbeeSH.sensor2.wlan[0].queue dataCapacity -1b
attr unit b
par ZigbeeSH.sensor2.wlan[0].queue dropperClass "\"inet::queueing::PacketAtCollectionEndDropper\""
par ZigbeeSH.sensor2.wlan[0].queue comparatorClass "\"\""
par ZigbeeSH.sensor2.wlan[0].queue bufferModule "\"\""
scalar ZigbeeSH.sensor2.wlan[0].queue queueLength:last 0
attr autoWarmupFilter false
attr interpolationmode sample-hold
attr recordingmode last
attr source "warmup(atomic(constant0(packetPushEnded) + count(packetPushStarted) - count(packetPulled) - count(packetRemoved) - count(packetDropped)))"
attr title "queue length, last"
attr unit pk
scalar ZigbeeSH.sensor2.wlan[0].queue queueLength:max 1
attr autoWarmupFilter false
attr interpolationmode sample-hold
attr recordingmode max
attr source "warmup(atomic(constant0(packetPushEnded) + count(packetPushStarted) - count(packetPulled) - count(packetRemoved) - count(packetDropped)))"
attr title "queue length, max"
attr unit pk
scalar ZigbeeSH.sensor2.wlan[0].queue queueLength:timeavg 0.00110656
attr autoWarmupFilter false
attr interpolationmode sample-hold
attr recordingmode timeavg
attr source "warmup(atomic(constant0(packetPushEnded) + count(packetPushStarted) - count(packetPulled) - count(packetRemoved) - count(packetDropped)))"
attr title "queue length, timeavg"
attr unit pk
scalar ZigbeeSH.sensor2.wlan[0].queue queueBitLength:last 0
attr autoWarmupFilter false
attr interpolationmode sample-hold
attr recordingmode last
attr source "warmup(atomic(constant0(packetPushEnded) + sum(packetLength(packetPushStarted)) - sum(packetLength(packetPulled)) - sum(packetLength(packetRemoved)) - sum(packetLength(packetDropped))))"
attr title "queue bit length, last"
attr unit b
scalar ZigbeeSH.sensor2.wlan[0].queue queueBitLength:max 304
attr autoWarmupFilter false
attr interpolationmode sample-hold
attr recordingmode max
attr source "warmup(atomic(constant0(packetPushEnded) + sum(packetLength(packetPushStarted)) - sum(packetLength(packetPulled)) - sum(packetLength(packetRemoved)) - sum(packetLength(packetDropped))))"
attr title "queue bit length, max"
attr unit b
scalar ZigbeeSH.sensor2.wlan[0].queue queueBitLength:timeavg 0.33639424
attr autoWarmupFilter false
attr interpolationmode sample-hold
attr recordingmode timeavg
attr source "warmup(atomic(constant0(packetPushEnded) + sum(packetLength(packetPushStarted)) - sum(packetLength(packetPulled)) - sum(packetLength(packetRemoved)) - sum(packetLength(packetDropped))))"
attr title "queue bit length, timeavg"
attr unit b
statistic ZigbeeSH.sensor2.wlan[0].queue queueingTime:histogram
field count 87
field mean 0.001271908045977
field stddev 0.00072485340349785
field min 0.000128
field max 0.002368
field sum 0.110656
field sqrsum 0.000185929728
attr interpolationmode none
attr recordingmode histogram
attr source queueingTime(packetPulled)
attr title "queueing times"
attr unit s
bin	-inf	0
bin	0	0
bin	5e-05	0
bin	0.0001	9
bin	0.00015	0
bin	0.0002	0
bin	0.00025	0
bin	0.0003	0
bin	0.00035	0
bin	0.0004	9
bin	0.00045	0
bin	0.0005	0
bin	0.00055	0
bin	0.0006	0
bin	0.00065	0
bin	0.0007	0
bin	0.00075	13
bin	0.0008	0
bin	0.00085	0
bin	0.0009	0
bin	0.00095	0
bin	0.001	0
bin	0.00105	16
bin	0.0011	0
bin	0.00115	0
bin	0.0012	0
bin	0.00125	0
bin	0.0013	0
bin	0.00135	0
bin	0.0014	8
bin	0.00145	0
bin	0.0015	0
bin	0.00155	0
bin	0.0016	0
bin	0.00165	0
bin	0.0017	8
bin	0.00175	0
bin	0.0018	0
bin	0.00185	0
bin	0.0019	0
bin	0.00195	0
bin	0.002	12
bin	0.00205	0
bin	0.0021	0
bin	0.00215	0
bin	0.0022	0
bin	0.00225	0
bin	0.0023	0
bin	0.00235	12
bin	0.0024	0
bin	0.00245	0
bin	0.0025	0
bin	0.00255	0
bin	0.0026	0
bin	0.00265	0
bin	0.0027	0
bin	0.00275	0
bin	0.0028	0
bin	0.00285	0
bin	0.0029	0
bin	0.00295	0
scalar ZigbeeSH.sensor2.wlan[0].queue outgoingPackets:count 87
attr recordingmode count
attr source packetPulled
attr title "outgoing packets, count"
attr unit pk
scalar ZigbeeSH.sensor2.wlan[0].queue outgoingPacketLengths:sum 26448
attr interpolationmode none
attr recordingmode sum
attr source packetLength(packetPulled)
attr title "outgoing packet lengths, sum"
attr unit b
statistic ZigbeeSH.sensor2.wlan[0].queue outgoingPacketLengths:histogram
field count 87
field mean 304
field stddev 0
field min 304
field max 304
field sum 26448
field sqrsum 8040192
attr interpolationmode none
attr recordingmode histogram
attr source packetLength(packetPulled)
attr title "outgoing packet lengths"
attr unit b
bin	-inf	0
bin	303	0
bin	304	87
bin	305	0
statistic ZigbeeSH.sensor2.wlan[0].queue flowQueueingTime:histogram
field count 0
field mean nan
field stddev nan
field min nan
field max nan
field sum 0
field sqrsum 0
attr interpolationmode none
attr recordingmode histogram
attr source queueingTime(demuxFlow(packetPulled))
attr title "flow queueing times"
attr unit s
bin	-inf	0
bin	0	0
bin	1	0
scalar ZigbeeSH.sensor2.wlan[0].queue incomingPackets:count 87
attr recordingmode count
attr source packetPushStarted
attr title "incoming packets, count"
attr unit pk
scalar ZigbeeSH.sensor2.wlan[0].queue incomingPacketLengths:sum 26448
attr interpolationmode none
attr recordingmode sum
attr source packetLength(packetPushStarted)
attr title "incoming packet lengths, sum"
attr unit b
statistic ZigbeeSH.sensor2.wlan[0].queue incomingPacketLengths:histogram
field count 87
field mean 304
field stddev 0
field min 304
field max 304
field sum 26448
field sqrsum 8040192
attr interpolationmode none
attr recordingmode histogram
attr source packetLength(packetPushStarted)
attr title "incoming packet lengths"
attr unit b
bin	-inf	0
bin	303	0
bin	304	87
bin	305	0
scalar ZigbeeSH.sensor2.wlan[0].queue droppedPacketsQueueOverflow:count 0
attr interpolationmode none
attr recordingmode count
attr source packetDropReasonIsQueueOverflow(packetDropped)
attr title "dropped packets: queue overflow, count"
attr unit pk
scalar ZigbeeSH.sensor2.wlan[0].queue droppedPacketLengthsQueueOverflow:sum 0
attr interpolationmode none
attr recordingmode sum
attr source packetLength(packetDropReasonIsQueueOverflow(packetDropped))
attr title "dropped packet lengths: queue overflow, sum"
attr unit b
par ZigbeeSH.sensor2.wlan[0].mac typename "\"inet.linklayer.ieee802154.Ieee802154NarrowbandMac\""
par ZigbeeSH.sensor2.wlan[0].mac interfaceTableModule "\"ZigbeeSH.sensor2.interfaceTable\""
par ZigbeeSH.sensor2.wlan[0].mac address "\"auto\""
attr mutable ""
par ZigbeeSH.sensor2.wlan[0].mac headerLength 72b
attr unit b
par ZigbeeSH.sensor2.wlan[0].mac mtu 118B
attr unit B
par ZigbeeSH.sensor2.wlan[0].mac bitrate 250000bps
attr unit bps
par ZigbeeSH.sensor2.wlan[0].mac ccaDetectionTime 0.000128s
attr unit s
par ZigbeeSH.sensor2.wlan[0].mac rxSetupTime 0s
attr unit s
par ZigbeeSH.sensor2.wlan[0].mac aTurnaroundTime 0.000192s
attr unit s
par ZigbeeSH.sensor2.wlan[0].mac useMACAcks true
par ZigbeeSH.sensor2.wlan[0].mac macMaxFrameRetries 3
par ZigbeeSH.sensor2.wlan[0].mac macAckWaitDuration 0.00056s
attr unit s
par ZigbeeSH.sensor2.wlan[0].mac ackLength 40b
attr unit b
par ZigbeeSH.sensor2.wlan[0].mac sifs 0.000192s
attr unit s
par ZigbeeSH.sensor2.wlan[0].mac backoffMethod "\"exponential\""
par ZigbeeSH.sensor2.wlan[0].mac macMaxCSMABackoffs 4
par ZigbeeSH.sensor2.wlan[0].mac aUnitBackoffPeriod 0.00032s
attr unit s
par ZigbeeSH.sensor2.wlan[0].mac contentionWindow 2
par ZigbeeSH.sensor2.wlan[0].mac macMinBE 3
par ZigbeeSH.sensor2.wlan[0].mac macMaxBE 5
par ZigbeeSH.sensor2.wlan[0].mac radioModule "\"^.radio\""
scalar ZigbeeSH.sensor2.wlan[0].mac nbTxFrames 87
scalar ZigbeeSH.sensor2.wlan[0].mac nbRxFrames 0
scalar ZigbeeSH.sensor2.wlan[0].mac nbDroppedFrames 0
scalar ZigbeeSH.sensor2.wlan[0].mac nbMissedAcks 0
scalar ZigbeeSH.sensor2.wlan[0].mac nbRecvdAcks 87
scalar ZigbeeSH.sensor2.wlan[0].mac nbTxAcks 0
scalar ZigbeeSH.sensor2.wlan[0].mac nbDuplicates 0
scalar ZigbeeSH.sensor2.wlan[0].mac meanBackoff 0.001143908045977
scalar ZigbeeSH.sensor2.wlan[0].mac nbBackoffs 87
scalar ZigbeeSH.sensor2.wlan[0].mac backoffDurations 0.09952
scalar ZigbeeSH.sensor2.wlan[0].mac packetDropNotAddressToUs:count 1040
attr interpolationmode none
attr recordingmode count
attr source packetDropReasonIsNotAddressedToUs(packetDropped)
attr title "packet drop: not addressed to us, count"
scalar ZigbeeSH.sensor2.wlan[0].mac packetDropNotAddressToUs:sum(packetBytes) 27040
attr interpolationmode none
attr recordingmode sum(packetBytes)
attr source packetDropReasonIsNotAddressedToUs(packetDropped)
attr title "packet drop: not addressed to us, sum(packetBytes)"
scalar ZigbeeSH.sensor2.wlan[0].mac packetDropIncorrectlyReceived:count 0
attr interpolationmode none
attr recordingmode count
attr source packetDropReasonIsIncorrectlyReceived(packetDropped)
attr title "packet drop: incorrectly received, count"
scalar ZigbeeSH.sensor2.wlan[0].mac packetDropIncorrectlyReceived:sum(packetBytes) 0
attr interpolationmode none
attr recordingmode sum(packetBytes)
attr source packetDropReasonIsIncorrectlyReceived(packetDropped)
attr title "packet drop: incorrectly received, sum(packetBytes)"
scalar ZigbeeSH.sensor2.wlan[0].mac packetDropQueueOverflow:count 0
attr interpolationmode none
attr recordingmode count
attr source packetDropReasonIsQueueOverflow(packetDropped)
attr title "packet drop: queue overflow, count"
scalar ZigbeeSH.sensor2.wlan[0].mac packetDropQueueOverflow:sum(packetBytes) 0
attr interpolationmode none
attr recordingmode sum(packetBytes)
attr source packetDropReasonIsQueueOverflow(packetDropped)
attr title "packet drop: queue overflow, sum(packetBytes)"
scalar ZigbeeSH.sensor2.wlan[0].mac packetDropRetryLimitReached:count 0
attr interpolationmode none
attr recordingmode count
attr source packetDropReasonIsRetryLimitReached(packetDropped)
attr title "packet drop: retry limit reached, count"
scalar ZigbeeSH.sensor2.wlan[0].mac packetDropRetryLimitReached:sum(packetBytes) 0
attr interpolationmode none
attr recordingmode sum(packetBytes)
attr source packetDropReasonIsRetryLimitReached(packetDropped)
attr title "packet drop: retry limit reached, sum(packetBytes)"
scalar ZigbeeSH.sensor2.wlan[0].mac packetDropBackoffLimitReached:count 0
attr interpolationmode none
attr recordingmode count
attr source packetDropReasonIsCongestion(packetDropped)
attr title "packet drop: backoff limit reached, count"
scalar ZigbeeSH.sensor2.wlan[0].mac packetDropBackoffLimitReached:sum(packetBytes) 0
attr interpolationmode none
attr recordingmode sum(packetBytes)
attr source packetDropReasonIsCongestion(packetDropped)
attr title "packet drop: backoff limit reached, sum(packetBytes)"
scalar ZigbeeSH.sensor2.wlan[0].mac linkBroken:count 0
attr interpolationmode none
attr recordingmode count
attr source linkBroken
attr title "link break, count"
par ZigbeeSH.sensor2.wlan[0].radio.antenna typename "\"inet.physicallayer.wireless.common.antenna.IsotropicAntenna\""
par ZigbeeSH.sensor2.wlan[0].radio.antenna mobilityModule "\"^.^.^.mobility\""
par ZigbeeSH.sensor2.wlan[0].radio.antenna numAntennas 1
par ZigbeeSH.sensor2.wlan[0].radio.transmitter typename "\"inet.physicallayer.wireless.ieee802154.packetlevel.Ieee802154NarrowbandScalarTransmitter\""
par ZigbeeSH.sensor2.wlan[0].radio.transmitter preambleDuration 0.000128s
attr unit s
par ZigbeeSH.sensor2.wlan[0].radio.transmitter headerLength 16b
attr unit b
par ZigbeeSH.sensor2.wlan[0].radio.transmitter bitrate 250000bps
attr unit bps
par ZigbeeSH.sensor2.wlan[0].radio.transmitter power 0.001W
attr unit W
par ZigbeeSH.sensor2.wlan[0].radio.transmitter centerFrequency 2.45e+09Hz
attr unit Hz
par ZigbeeSH.sensor2.wlan[0].radio.transmitter bandwidth 2.8e+06Hz
attr unit Hz
par ZigbeeSH.sensor2.wlan[0].radio.transmitter codeRate 1
par ZigbeeSH.sensor2.wlan[0].radio.transmitter modulation "\"DSSS-OQPSK-16\""
par ZigbeeSH.sensor2.wlan[0].radio.receiver.errorModel typename "\"inet.physicallayer.wireless.apsk.packetlevel.errormodel.ApskErrorModel\""
par ZigbeeSH.sensor2.wlan[0].radio.receiver.errorModel corruptionMode "\"packet\""
attr enum packet,chunk,byte,bit
par ZigbeeSH.sensor2.wlan[0].radio.receiver.errorModel snirMode "\"min\""
attr enum min,mean
par ZigbeeSH.sensor2.wlan[0].radio.receiver.errorModel snirOffset 0dB
attr unit dB
par ZigbeeSH.sensor2.wlan[0].radio.receiver typename "\"inet.physicallayer.wireless.ieee802154.packetlevel.Ieee802154NarrowbandScalarReceiver\""
par ZigbeeSH.sensor2.wlan[0].radio.receiver snirThreshold -8dB
attr unit dB
par ZigbeeSH.sensor2.wlan[0].radio.receiver snirThresholdMode "\"min\""
attr enum min,mean
par ZigbeeSH.sensor2.wlan[0].radio.receiver energyDetection -90dBm
attr unit dBm
par ZigbeeSH.sensor2.wlan[0].radio.receiver sensitivity -85dBm
attr unit dBm
par ZigbeeSH.sensor2.wlan[0].radio.receiver centerFrequency 2.45e+09Hz
attr unit Hz
par ZigbeeSH.sensor2.wlan[0].radio.receiver bandwidth 2.8e+06Hz
attr unit Hz
par ZigbeeSH.sensor2.wlan[0].radio.receiver modulation "\"DSSS-OQPSK-16\""
par ZigbeeSH.sensor2.wlan[0].radio.receiver minInterferencePower -120dBm
attr unit dBm
par ZigbeeSH.sensor2.wlan[0].radio.energyConsumer typename "\"inet.physicallayer.wireless.common.energyconsumer.SensorStateBasedEpEnergyConsumer\""
par ZigbeeSH.sensor2.wlan[0].radio.energyConsumer energySourceModule "\"ZigbeeSH.sensor2.energyStorage\""
par ZigbeeSH.sensor2.wlan[0].radio.energyConsumer offPowerConsumption 0W
attr unit W
par ZigbeeSH.sensor2.wlan[0].radio.energyConsumer sleepPowerConsumption 1e-06W
attr unit W
par ZigbeeSH.sensor2.wlan[0].radio.energyConsumer switchingPowerConsumption 0.025W
attr unit W
par ZigbeeSH.sensor2.wlan[0].radio.energyConsumer receiverIdlePowerConsumption 5e-06W
attr unit W
par ZigbeeSH.sensor2.wlan[0].radio.energyConsumer receiverBusyPowerConsumption 0.0001W
attr unit W
par ZigbeeSH.sensor2.wlan[0].radio.energyConsumer receiverReceivingPowerConsumption 0.05W
attr unit W
par ZigbeeSH.sensor2.wlan[0].radio.energyConsumer receiverReceivingPreamblePowerConsumption 0.05W
attr unit W
par ZigbeeSH.sensor2.wlan[0].radio.energyConsumer receiverReceivingHeaderPowerConsumption 0.05W
attr unit W
par ZigbeeSH.sensor2.wlan[0].radio.energyConsumer receiverReceivingDataPowerConsumption 0.05W
attr unit W
par ZigbeeSH.sensor2.wlan[0].radio.energyConsumer transmitterIdlePowerConsumption 0.005W
attr unit W
par ZigbeeSH.sensor2.wlan[0].radio.energyConsumer transmitterTransmittingPowerConsumption 0.075W
attr unit W
par ZigbeeSH.sensor2.wlan[0].radio.energyConsumer transmitterTransmittingPreamblePowerConsumption 0.075W
attr unit W
par ZigbeeSH.sensor2.wlan[0].radio.energyConsumer transmitterTransmittingHeaderPowerConsumption 0.075W
attr unit W
par ZigbeeSH.sensor2.wlan[0].radio.energyConsumer transmitterTransmittingDataPowerConsumption 0.075W
attr unit W
par ZigbeeSH.sensor2.wlan[0].radio typename "\"inet.physicallayer.wireless.ieee802154.packetlevel.Ieee802154NarrowbandScalarRadio\""
par ZigbeeSH.sensor2.wlan[0].radio radioMediumModule "\"radioMedium\""
par ZigbeeSH.sensor2.wlan[0].radio energySourceModule "\"ZigbeeSH.sensor2.energyStorage\""
par ZigbeeSH.sensor2.wlan[0].radio initialRadioMode "\"off\""
attr enum off,sleep,receiver,transmitter,transceiver
par ZigbeeSH.sensor2.wlan[0].radio switchingTimes "\"ms 0 0 0 0 0 0 0 0 0 0 0 0 0 0 0 0 0 0 0 0 0 0 0 0 0\""
par ZigbeeSH.sensor2.wlan[0].radio sendRawBytes false
par ZigbeeSH.sensor2.wlan[0].radio separateTransmissionParts false
par ZigbeeSH.sensor2.wlan[0].radio separateReceptionParts false
par ZigbeeSH.sensor2.wlan[0].radio displayCommunicationRange false
par ZigbeeSH.sensor2.wlan[0].radio displayInterferenceRange false
par ZigbeeSH.sensor2.wlan[0].radio centerFrequency 2.45e+09Hz
attr unit Hz
par ZigbeeSH.sensor2.wlan[0].radio bandwidth 2.8e+06Hz
attr unit Hz
par ZigbeeSH.sensor2.wlan[0].radio signalAnalogRepresentation "\"scalar\""
attr enum scalar,dimensional
statistic ZigbeeSH.sensor2.wlan[0].radio minSnir:histogram
field count 1127
field mean 107239.29605507
field stddev 70510.722510773
field min 9648.2467319748
field max 170663.15847041
field sum 120858686.65407
field sqrsum 18559004478527
attr recordingmode histogram
attr source minimumSnir(packetSentToUpper)
attr title "Min SNIR"
bin	-inf	0
bin	0	0
bin	5000	27
bin	10000	82
bin	15000	76
bin	20000	107
bin	25000	44
bin	30000	0
bin	35000	83
bin	40000	0
bin	45000	0
bin	50000	0
bin	55000	0
bin	60000	0
bin	65000	0
bin	70000	0
bin	75000	65
bin	80000	36
bin	85000	0
bin	90000	0
bin	95000	0
bin	100000	0
bin	105000	0
bin	110000	0
bin	115000	0
bin	120000	0
bin	125000	0
bin	130000	0
bin	135000	0
bin	140000	0
bin	145000	0
bin	150000	0
bin	155000	0
bin	160000	0
bin	165000	0
bin	170000	607
bin	175000	0
bin	180000	0
bin	185000	0
bin	190000	0
bin	195000	0
bin	200000	0
bin	205000	0
bin	210000	0
bin	215000	0
statistic ZigbeeSH.sensor2.wlan[0].radio packetErrorRate:histogram
field count 1127
field mean 0
field stddev 0
field min 0
field max 0
field sum 0
field sqrsum 0
attr recordingmode histogram
attr source packetErrorRate(packetSentToUpper)
attr title "Packet error rate"
bin	-inf	0
bin	-0.5	0
bin	-0.48	0
bin	-0.46	0
bin	-0.44	0
bin	-0.42	0
bin	-0.4	0
bin	-0.38	0
bin	-0.36	0
bin	-0.34	0
bin	-0.32	0
bin	-0.3	0
bin	-0.28	0
bin	-0.26	0
bin	-0.24	0
bin	-0.22	0
bin	-0.2	0
bin	-0.18	0
bin	-0.16	0
bin	-0.14	0
bin	-0.12	0
bin	-0.1	0
bin	-0.08	0
bin	-0.06	0
bin	-0.04	0
bin	-0.02	0
bin	0	1127
bin	0.02	0
bin	0.04	0
bin	0.06	0
bin	0.08	0
bin	0.1	0
bin	0.12	0
bin	0.14	0
bin	0.16	0
bin	0.18	0
bin	0.2	0
bin	0.22	0
bin	0.24	0
bin	0.26	0
bin	0.28	0
bin	0.3	0
bin	0.32	0
bin	0.34	0
bin	0.36	0
bin	0.38	0
bin	0.4	0
bin	0.42	0
bin	0.44	0
bin	0.46	0
bin	0.48	0
bin	0.5	0
statistic ZigbeeSH.sensor2.wlan[0].radio bitErrorRate:histogram
field count 1127
field mean 0
field stddev 0
field min 0
field max 0
field sum 0
field sqrsum 0
attr recordingmode histogram
attr source bitErrorRate(packetSentToUpper)
attr title "Bit error rate"
bin	-inf	0
bin	-0.5	0
bin	-0.48	0
bin	-0.46	0
bin	-0.44	0
bin	-0.42	0
bin	-0.4	0
bin	-0.38	0
bin	-0.36	0
bin	-0.34	0
bin	-0.32	0
bin	-0.3	0
bin	-0.28	0
bin	-0.26	0
bin	-0.24	0
bin	-0.22	0
bin	-0.2	0
bin	-0.18	0
bin	-0.16	0
bin	-0.14	0
bin	-0.12	0
bin	-0.1	0
bin	-0.08	0
bin	-0.06	0
bin	-0.04	0
bin	-0.02	0
bin	0	1127
bin	0.02	0
bin	0.04	0
bin	0.06	0
bin	0.08	0
bin	0.1	0
bin	0.12	0
bin	0.14	0
bin	0.16	0
bin	0.18	0
bin	0.2	0
bin	0.22	0
bin	0.24	0
bin	0.26	0
bin	0.28	0
bin	0.3	0
bin	0.32	0
bin	0.34	0
bin	0.36	0
bin	0.38	0
bin	0.4	0
bin	0.42	0
bin	0.44	0
bin	0.46	0
bin	0.48	0
bin	0.5	0
statistic ZigbeeSH.sensor2.wlan[0].radio symbolErrorRate:histogram
field count 0
field mean nan
field stddev nan
field min nan
field max nan
field sum 0
field sqrsum 0
attr recordingmode histogram
attr source symbolErrorRate(packetSentToUpper)
attr title "Symbol error rate"
bin	-inf	0
bin	0	0
bin	1	0
scalar ZigbeeSH.sensor2.wlan[0].radio transmissionState:count 348
attr interpolationmode sample-hold
attr recordingmode count
attr source transmissionStateChanged
attr title "Radio transmission state, count"
scalar ZigbeeSH.sensor2.wlan[0].radio receptionState:count 2429
attr interpolationmode sample-hold
attr recordingmode count
attr source receptionStateChanged
attr title "Radio reception state, count"
scalar ZigbeeSH.sensor2.wlan[0].radio radioMode:count 177
attr interpolationmode sample-hold
attr recordingmode count
attr source radioModeChanged
attr title "Radio mode, count"
par ZigbeeSH.sensor2.wlan[0] typename "\"inet.linklayer.ieee802154.Ieee802154NarrowbandInterface\""
par ZigbeeSH.sensor2.wlan[0] displayStringTextFormat "\"%a (%i)\\n%m\""
par ZigbeeSH.sensor2.wlan[0] recordPcap false
par ZigbeeSH.sensor2.wlan[0] numPcapRecorders 0
par ZigbeeSH.sensor2.wlan[0] interfaceTableModule "\"ZigbeeSH.sensor2.interfaceTable\""
par ZigbeeSH.sensor2.wlan[0] energySourceModule "\"ZigbeeSH.sensor2.energyStorage\""
scalar ZigbeeSH.sensor2.wlan[0] packetDropInterfaceDown:count 0
attr interpolationmode none
attr recordingmode count
attr source packetDropReasonIsInterfaceDown(packetDropped)
attr title "packet drops: interface down, count"
scalar ZigbeeSH.sensor2.wlan[0] packetDropInterfaceDown:sum(packetBytes) 0
attr interpolationmode none
attr recordingmode sum(packetBytes)
attr source packetDropReasonIsInterfaceDown(packetDropped)
attr title "packet drops: interface down, sum(packetBytes)"
scalar ZigbeeSH.sensor2.wlan[0] packetDropNoCarrier:count 0
attr interpolationmode none
attr recordingmode count
attr source packetDropReasonIsNoCarrier(packetDropped)
attr title "packet drops: no carrier, count"
scalar ZigbeeSH.sensor2.wlan[0] packetDropNoCarrier:sum(packetBytes) 0
attr interpolationmode none
attr recordingmode sum(packetBytes)
attr source packetDropReasonIsNoCarrier(packetDropped)
attr title "packet drops: no carrier, sum(packetBytes)"
par ZigbeeSH.sensor2.ipv4.transportIn.channel typename "\"ned.IdealChannel\""
par ZigbeeSH.sensor2.ipv4.up.out[0].channel typename "\"ned.IdealChannel\""
par ZigbeeSH.sensor2.ipv4.lp.out[2].channel typename "\"ned.IdealChannel\""
par ZigbeeSH.sensor2.ipv4.ifIn.channel typename "\"ned.IdealChannel\""
par ZigbeeSH.sensor2.ipv4.configurator typename "\"inet.networklayer.configurator.ipv4.Ipv4NodeConfigurator\""
par ZigbeeSH.sensor2.ipv4.configurator interfaceTableModule "\"ZigbeeSH.sensor2.interfaceTable\""
par ZigbeeSH.sensor2.ipv4.configurator routingTableModule "\"ZigbeeSH.sensor2.ipv4.routingTable\""
par ZigbeeSH.sensor2.ipv4.configurator networkConfiguratorModule "\"configurator\""
par ZigbeeSH.sensor2.ipv4.configurator configureRoutingTable true
par ZigbeeSH.sensor2.ipv4.routingTable typename "\"inet.networklayer.ipv4.Ipv4RoutingTable\""
par ZigbeeSH.sensor2.ipv4.routingTable interfaceTableModule "\"ZigbeeSH.sensor2.interfaceTable\""
par ZigbeeSH.sensor2.ipv4.routingTable routerId "\"auto\""
par ZigbeeSH.sensor2.ipv4.routingTable netmaskRoutes "\"\""
par ZigbeeSH.sensor2.ipv4.routingTable forwarding false
par ZigbeeSH.sensor2.ipv4.routingTable multicastForwarding false
par ZigbeeSH.sensor2.ipv4.routingTable useAdminDist false
par ZigbeeSH.sensor2.ipv4.routingTable routingFile "\"\""
par ZigbeeSH.sensor2.ipv4.natTable typename "\"inet.networklayer.ipv4.Ipv4NatTable\""
par ZigbeeSH.sensor2.ipv4.natTable networkProtocolModule "\"^.ip\""
par ZigbeeSH.sensor2.ipv4.natTable config "<config/> at content:1"
par ZigbeeSH.sensor2.ipv4.up typename "\"inet.common.MessageDispatcher\""
par ZigbeeSH.sensor2.ipv4.up displayStringTextFormat "\"processed %p pk (%l)\""
par ZigbeeSH.sensor2.ipv4.up forwardServiceRegistration true
par ZigbeeSH.sensor2.ipv4.up forwardProtocolRegistration true
par ZigbeeSH.sensor2.ipv4.igmp typename "\"inet.networklayer.ipv4.Igmpv2\""
par ZigbeeSH.sensor2.ipv4.igmp interfaceTableModule "\"ZigbeeSH.sensor2.interfaceTable\""
par ZigbeeSH.sensor2.ipv4.igmp routingTableModule "\"ZigbeeSH.sensor2.ipv4.routingTable\""
par ZigbeeSH.sensor2.ipv4.igmp crcMode "\"declared\""
attr enum declared,computed
par ZigbeeSH.sensor2.ipv4.igmp enabled true
par ZigbeeSH.sensor2.ipv4.igmp robustnessVariable 2
par ZigbeeSH.sensor2.ipv4.igmp queryInterval 125s
attr unit s
par ZigbeeSH.sensor2.ipv4.igmp queryResponseInterval 10s
attr unit s
par ZigbeeSH.sensor2.ipv4.igmp groupMembershipInterval 260s
attr unit s
par ZigbeeSH.sensor2.ipv4.igmp otherQuerierPresentInterval 255s
attr unit s
par ZigbeeSH.sensor2.ipv4.igmp startupQueryInterval 31.25s
attr unit s
par ZigbeeSH.sensor2.ipv4.igmp startupQueryCount 2
par ZigbeeSH.sensor2.ipv4.igmp lastMemberQueryInterval 1s
attr unit s
par ZigbeeSH.sensor2.ipv4.igmp lastMemberQueryCount 2
par ZigbeeSH.sensor2.ipv4.igmp unsolicitedReportInterval 10s
attr unit s
par ZigbeeSH.sensor2.ipv4.icmp typename "\"inet.networklayer.ipv4.Icmp\""
par ZigbeeSH.sensor2.ipv4.icmp interfaceTableModule "\"ZigbeeSH.sensor2.interfaceTable\""
par ZigbeeSH.sensor2.ipv4.icmp routingTableModule "\"ZigbeeSH.sensor2.ipv4.routingTable\""
par ZigbeeSH.sensor2.ipv4.icmp crcMode "\"declared\""
attr enum declared,computed
attr mutable ""
par ZigbeeSH.sensor2.ipv4.icmp quoteLength 8B
attr mutable ""
attr unit B
par ZigbeeSH.sensor2.ipv4.mp typename "\"inet.common.MessageDispatcher\""
par ZigbeeSH.sensor2.ipv4.mp displayStringTextFormat "\"processed %p pk (%l)\""
par ZigbeeSH.sensor2.ipv4.mp forwardServiceRegistration true
par ZigbeeSH.sensor2.ipv4.mp forwardProtocolRegistration true
[...]
attr enum service,peer,protocol
par ZigbeeSH.visualizer.canvasVisualizer.dataLinkVisualizer[1] nodeFilter "\"lamp* or coordinator\""
attr mutable ""
par ZigbeeSH.visualizer.canvasVisualizer.dataLinkVisualizer[1] interfaceFilter "\"*\""
attr mutable ""
par ZigbeeSH.visualizer.canvasVisualizer.dataLinkVisualizer[1] packetFilter "(omnetpp::cValueHolder)holder: \"*\""
attr mutable ""
par ZigbeeSH.visualizer.canvasVisualizer.dataLinkVisualizer[1] lineColor "\"blue\""
par ZigbeeSH.visualizer.canvasVisualizer.dataLinkVisualizer[1] lineStyle "\"solid\""
par ZigbeeSH.visualizer.canvasVisualizer.dataLinkVisualizer[1] lineWidth 3
par ZigbeeSH.visualizer.canvasVisualizer.dataLinkVisualizer[1] lineShift 16
par ZigbeeSH.visualizer.canvasVisualizer.dataLinkVisualizer[1] lineShiftMode "\"normal\""
par ZigbeeSH.visualizer.canvasVisualizer.dataLinkVisualizer[1] lineContactSpacing 3
par ZigbeeSH.visualizer.canvasVisualizer.dataLinkVisualizer[1] lineContactMode "\"rectangular\""
attr enum circular,rectangular
par ZigbeeSH.visualizer.canvasVisualizer.dataLinkVisualizer[1] labelFormat "\"%n\""
par ZigbeeSH.visualizer.canvasVisualizer.dataLinkVisualizer[1] labelFont "\"<default>, 8px\""
par ZigbeeSH.visualizer.canvasVisualizer.dataLinkVisualizer[1] labelColor "\"blue\""
par ZigbeeSH.visualizer.canvasVisualizer.dataLinkVisualizer[1] fadeOutMode "\"realTime\""
attr enum realTime,animationTime,simulationTime
par ZigbeeSH.visualizer.canvasVisualizer.dataLinkVisualizer[1] fadeOutTime 1s
attr unit s
par ZigbeeSH.visualizer.canvasVisualizer.dataLinkVisualizer[1] fadeOutAnimationSpeed 0
par ZigbeeSH.visualizer.canvasVisualizer.dataLinkVisualizer[1] holdAnimationTime 0s
attr unit s
par ZigbeeSH.visualizer.canvasVisualizer.dataLinkVisualizer[1] zIndex 2
par ZigbeeSH.visualizer.canvasVisualizer.linkBreakVisualizer[0] typename "\"inet.visualizer.canvas.linklayer.LinkBreakCanvasVisualizer\""
par ZigbeeSH.visualizer.canvasVisualizer.linkBreakVisualizer[0] visualizationTargetModule "\"^.^.^\""
par ZigbeeSH.visualizer.canvasVisualizer.linkBreakVisualizer[0] visualizationSubjectModule "\"^.^.^\""
par ZigbeeSH.visualizer.canvasVisualizer.linkBreakVisualizer[0] tags "\"\""
par ZigbeeSH.visualizer.canvasVisualizer.linkBreakVisualizer[0] displayLinkBreaks false
par ZigbeeSH.visualizer.canvasVisualizer.linkBreakVisualizer[0] nodeFilter "\"*\""
attr mutable ""
par ZigbeeSH.visualizer.canvasVisualizer.linkBreakVisualizer[0] interfaceFilter "\"*\""
attr mutable ""
par ZigbeeSH.visualizer.canvasVisualizer.linkBreakVisualizer[0] packetFilter "(omnetpp::cValueHolder)holder: \"*\""
attr mutable ""
par ZigbeeSH.visualizer.canvasVisualizer.linkBreakVisualizer[0] icon "\"status/stop\""
par ZigbeeSH.visualizer.canvasVisualizer.linkBreakVisualizer[0] iconTintAmount 0
par ZigbeeSH.visualizer.canvasVisualizer.linkBreakVisualizer[0] iconTintColor "\"\""
par ZigbeeSH.visualizer.canvasVisualizer.linkBreakVisualizer[0] fadeOutMode "\"realTime\""
attr enum realTime,animationTime,simulationTime
par ZigbeeSH.visualizer.canvasVisualizer.linkBreakVisualizer[0] fadeOutTime 1s
attr unit s
par ZigbeeSH.visualizer.canvasVisualizer.linkBreakVisualizer[0] fadeOutAnimationSpeed 0
par ZigbeeSH.visualizer.canvasVisualizer.linkBreakVisualizer[0] zIndex 2
par ZigbeeSH.visualizer.canvasVisualizer.ieee80211Visualizer[0] typename "\"inet.visualizer.canvas.linklayer.Ieee80211CanvasVisualizer\""
par ZigbeeSH.visualizer.canvasVisualizer.ieee80211Visualizer[0] visualizationTargetModule "\"^.^.^\""
par ZigbeeSH.visualizer.canvasVisualizer.ieee80211Visualizer[0] visualizationSubjectModule "\"^.^.^\""
par ZigbeeSH.visualizer.canvasVisualizer.ieee80211Visualizer[0] tags "\"\""
par ZigbeeSH.visualizer.canvasVisualizer.ieee80211Visualizer[0] networkNodeVisualizerModule "\"ZigbeeSH.visualizer.canvasVisualizer.networkNodeVisualizer[0]\""
par ZigbeeSH.visualizer.canvasVisualizer.ieee80211Visualizer[0] displayAssociations false
par ZigbeeSH.visualizer.canvasVisualizer.ieee80211Visualizer[0] nodeFilter "\"*\""
attr mutable ""
par ZigbeeSH.visualizer.canvasVisualizer.ieee80211Visualizer[0] interfaceFilter "\"*\""
attr mutable ""
par ZigbeeSH.visualizer.canvasVisualizer.ieee80211Visualizer[0] minPower -85dBm
attr unit dBm
par ZigbeeSH.visualizer.canvasVisualizer.ieee80211Visualizer[0] maxPower -50dBm
attr unit dBm
par ZigbeeSH.visualizer.canvasVisualizer.ieee80211Visualizer[0] icons "\"misc/signal_power_0 misc/signal_power_1 misc/signal_power_2 misc/signal_power_3\""
par ZigbeeSH.visualizer.canvasVisualizer.ieee80211Visualizer[0] iconColor "\"dark\""
attr enum light,dark
par ZigbeeSH.visualizer.canvasVisualizer.ieee80211Visualizer[0] labelFont "\"<default>\""
par ZigbeeSH.visualizer.canvasVisualizer.ieee80211Visualizer[0] labelColor "\"black\""
par ZigbeeSH.visualizer.canvasVisualizer.ieee80211Visualizer[0] placementHint "\"top\""
par ZigbeeSH.visualizer.canvasVisualizer.ieee80211Visualizer[0] placementPriority 0
par ZigbeeSH.visualizer.canvasVisualizer.ieee80211Visualizer[0] zIndex 2
par ZigbeeSH.visualizer.canvasVisualizer.networkRouteVisualizer[0] typename "\"inet.visualizer.canvas.networklayer.NetworkRouteCanvasVisualizer\""
par ZigbeeSH.visualizer.canvasVisualizer.networkRouteVisualizer[0] visualizationTargetModule "\"^.^.^\""
par ZigbeeSH.visualizer.canvasVisualizer.networkRouteVisualizer[0] visualizationSubjectModule "\"^.^.^\""
par ZigbeeSH.visualizer.canvasVisualizer.networkRouteVisualizer[0] tags "\"\""
par ZigbeeSH.visualizer.canvasVisualizer.networkRouteVisualizer[0] displayRoutes false
par ZigbeeSH.visualizer.canvasVisualizer.networkRouteVisualizer[0] startPathSignal "\"packetReceivedFromUpper\""
par ZigbeeSH.visualizer.canvasVisualizer.networkRouteVisualizer[0] extendPathSignal "\"packetReceivedFromLower\""
par ZigbeeSH.visualizer.canvasVisualizer.networkRouteVisualizer[0] endPathSignal "\"packetSentToUpper\""
par ZigbeeSH.visualizer.canvasVisualizer.networkRouteVisualizer[0] nodeFilter "\"*\""
attr mutable ""
par ZigbeeSH.visualizer.canvasVisualizer.networkRouteVisualizer[0] packetFilter "(omnetpp::cValueHolder)holder: \"*\""
attr mutable ""
par ZigbeeSH.visualizer.canvasVisualizer.networkRouteVisualizer[0] lineColor "\"dark\""
attr enum light,dark
par ZigbeeSH.visualizer.canvasVisualizer.networkRouteVisualizer[0] lineStyle "\"solid\""
par ZigbeeSH.visualizer.canvasVisualizer.networkRouteVisualizer[0] lineWidth 3
par ZigbeeSH.visualizer.canvasVisualizer.networkRouteVisualizer[0] lineSmooth false
par ZigbeeSH.visualizer.canvasVisualizer.networkRouteVisualizer[0] lineShift 16
par ZigbeeSH.visualizer.canvasVisualizer.networkRouteVisualizer[0] lineShiftMode "\"normal\""
par ZigbeeSH.visualizer.canvasVisualizer.networkRouteVisualizer[0] lineContactSpacing 3
par ZigbeeSH.visualizer.canvasVisualizer.networkRouteVisualizer[0] lineContactMode "\"rectangular\""
attr enum circular,rectangular
par ZigbeeSH.visualizer.canvasVisualizer.networkRouteVisualizer[0] labelFormat "\"%n\""
par ZigbeeSH.visualizer.canvasVisualizer.networkRouteVisualizer[0] labelFont "\"<default>, 8px\""
par ZigbeeSH.visualizer.canvasVisualizer.networkRouteVisualizer[0] labelColor "\"\""
par ZigbeeSH.visualizer.canvasVisualizer.networkRouteVisualizer[0] fadeOutMode "\"realTime\""
attr enum realTime,animationTime,simulationTime
par ZigbeeSH.visualizer.canvasVisualizer.networkRouteVisualizer[0] fadeOutTime 1s
attr unit s
par ZigbeeSH.visualizer.canvasVisualizer.networkRouteVisualizer[0] fadeOutAnimationSpeed 0
par ZigbeeSH.visualizer.canvasVisualizer.networkRouteVisualizer[0] zIndex 3
par ZigbeeSH.visualizer.canvasVisualizer.routingTableVisualizer[0] typename "\"inet.visualizer.canvas.networklayer.RoutingTableCanvasVisualizer\""
par ZigbeeSH.visualizer.canvasVisualizer.routingTableVisualizer[0] visualizationTargetModule "\"^.^.^\""
par ZigbeeSH.visualizer.canvasVisualizer.routingTableVisualizer[0] visualizationSubjectModule "\"^.^.^\""
par ZigbeeSH.visualizer.canvasVisualizer.routingTableVisualizer[0] tags "\"\""
par ZigbeeSH.visualizer.canvasVisualizer.routingTableVisualizer[0] displayRoutingTables false
par ZigbeeSH.visualizer.canvasVisualizer.routingTableVisualizer[0] displayRoutesIndividually false
par ZigbeeSH.visualizer.canvasVisualizer.routingTableVisualizer[0] displayLabels false
par ZigbeeSH.visualizer.canvasVisualizer.routingTableVisualizer[0] destinationFilter "\"*\""
attr mutable ""
par ZigbeeSH.visualizer.canvasVisualizer.routingTableVisualizer[0] nodeFilter "\"*\""
attr mutable ""
par ZigbeeSH.visualizer.canvasVisualizer.routingTableVisualizer[0] lineColor "\"black\""
par ZigbeeSH.visualizer.canvasVisualizer.routingTableVisualizer[0] lineStyle "\"solid\""
par ZigbeeSH.visualizer.canvasVisualizer.routingTableVisualizer[0] lineWidth 2
par ZigbeeSH.visualizer.canvasVisualizer.routingTableVisualizer[0] lineShift 0
par ZigbeeSH.visualizer.canvasVisualizer.routingTableVisualizer[0] lineShiftMode "\"normal\""
par ZigbeeSH.visualizer.canvasVisualizer.routingTableVisualizer[0] lineContactSpacing 3
par ZigbeeSH.visualizer.canvasVisualizer.routingTableVisualizer[0] lineContactMode "\"rectangular\""
attr enum circular,rectangular
par ZigbeeSH.visualizer.canvasVisualizer.routingTableVisualizer[0] labelFormat "\"%d/%m -> %g (%n)\""
attr mutable ""
par ZigbeeSH.visualizer.canvasVisualizer.routingTableVisualizer[0] labelFont "\"<default>, 8px\""
par ZigbeeSH.visualizer.canvasVisualizer.routingTableVisualizer[0] labelColor "\"black\""
par ZigbeeSH.visualizer.canvasVisualizer.routingTableVisualizer[0] zIndex 0
par ZigbeeSH.visualizer.canvasVisualizer.transportRouteVisualizer[0] typename "\"inet.visualizer.canvas.transportlayer.TransportRouteCanvasVisualizer\""
par ZigbeeSH.visualizer.canvasVisualizer.transportRouteVisualizer[0] visualizationTargetModule "\"^.^.^\""
par ZigbeeSH.visualizer.canvasVisualizer.transportRouteVisualizer[0] visualizationSubjectModule "\"^.^.^\""
par ZigbeeSH.visualizer.canvasVisualizer.transportRouteVisualizer[0] tags "\"\""
par ZigbeeSH.visualizer.canvasVisualizer.transportRouteVisualizer[0] displayRoutes false
par ZigbeeSH.visualizer.canvasVisualizer.transportRouteVisualizer[0] startPathSignal "\"packetReceivedFromUpper\""
par ZigbeeSH.visualizer.canvasVisualizer.transportRouteVisualizer[0] extendPathSignal "\"packetReceivedFromLower\""
par ZigbeeSH.visualizer.canvasVisualizer.transportRouteVisualizer[0] endPathSignal "\"packetSentToUpper\""
par ZigbeeSH.visualizer.canvasVisualizer.transportRouteVisualizer[0] nodeFilter "\"*\""
attr mutable ""
par ZigbeeSH.visualizer.canvasVisualizer.transportRouteVisualizer[0] packetFilter "(omnetpp::cValueHolder)holder: \"*\""
attr mutable ""
par ZigbeeSH.visualizer.canvasVisualizer.transportRouteVisualizer[0] lineColor "\"dark\""
attr enum light,dark
par ZigbeeSH.visualizer.canvasVisualizer.transportRouteVisualizer[0] lineStyle "\"solid\""
par ZigbeeSH.visualizer.canvasVisualizer.transportRouteVisualizer[0] lineWidth 3
par ZigbeeSH.visualizer.canvasVisualizer.transportRouteVisualizer[0] lineSmooth false
par ZigbeeSH.visualizer.canvasVisualizer.transportRouteVisualizer[0] lineShift 16
par ZigbeeSH.visualizer.canvasVisualizer.transportRouteVisualizer[0] lineShiftMode "\"normal\""
par ZigbeeSH.visualizer.canvasVisualizer.transportRouteVisualizer[0] lineContactSpacing 3
par ZigbeeSH.visualizer.canvasVisualizer.transportRouteVisualizer[0] lineContactMode "\"rectangular\""
attr enum circular,rectangular
par ZigbeeSH.visualizer.canvasVisualizer.transportRouteVisualizer[0] labelFormat "\"%n\""
par ZigbeeSH.visualizer.canvasVisualizer.transportRouteVisualizer[0] labelFont "\"<default>, 8px\""
par ZigbeeSH.visualizer.canvasVisualizer.transportRouteVisualizer[0] labelColor "\"\""
par ZigbeeSH.visualizer.canvasVisualizer.transportRouteVisualizer[0] fadeOutMode "\"realTime\""
attr enum realTime,animationTime,simulationTime
par ZigbeeSH.visualizer.canvasVisualizer.transportRouteVisualizer[0] fadeOutTime 1s
attr unit s
par ZigbeeSH.visualizer.canvasVisualizer.transportRouteVisualizer[0] fadeOutAnimationSpeed 0
par ZigbeeSH.visualizer.canvasVisualizer.transportRouteVisualizer[0] zIndex 4
par ZigbeeSH.visualizer.canvasVisualizer.transportConnectionVisualizer[0] typename "\"inet.visualizer.canvas.transportlayer.TransportConnectionCanvasVisualizer\""
par ZigbeeSH.visualizer.canvasVisualizer.transportConnectionVisualizer[0] visualizationTargetModule "\"^.^.^\""
par ZigbeeSH.visualizer.canvasVisualizer.transportConnectionVisualizer[0] visualizationSubjectModule "\"^.^.^\""
par ZigbeeSH.visualizer.canvasVisualizer.transportConnectionVisualizer[0] tags "\"\""
par ZigbeeSH.visualizer.canvasVisualizer.transportConnectionVisualizer[0] networkNodeVisualizerModule "\"ZigbeeSH.visualizer.canvasVisualizer.networkNodeVisualizer[0]\""
par ZigbeeSH.visualizer.canvasVisualizer.transportConnectionVisualizer[0] displayTransportConnections false
par ZigbeeSH.visualizer.canvasVisualizer.transportConnectionVisualizer[0] sourceNodeFilter "\"*\""
attr mutable ""
par ZigbeeSH.visualizer.canvasVisualizer.transportConnectionVisualizer[0] sourcePortFilter "\"*\""
attr mutable ""
par ZigbeeSH.visualizer.canvasVisualizer.transportConnectionVisualizer[0] destinationNodeFilter "\"*\""
attr mutable ""
par ZigbeeSH.visualizer.canvasVisualizer.transportConnectionVisualizer[0] destinationPortFilter "\"*\""
attr mutable ""
par ZigbeeSH.visualizer.canvasVisualizer.transportConnectionVisualizer[0] icon "\"misc/marker_s\""
par ZigbeeSH.visualizer.canvasVisualizer.transportConnectionVisualizer[0] iconColor "\"dark\""
attr enum light,dark
par ZigbeeSH.visualizer.canvasVisualizer.transportConnectionVisualizer[0] labelFont "\"<default>\""
par ZigbeeSH.visualizer.canvasVisualizer.transportConnectionVisualizer[0] labelColor "\"black\""
par ZigbeeSH.visualizer.canvasVisualizer.transportConnectionVisualizer[0] placementHint "\"top\""
par ZigbeeSH.visualizer.canvasVisualizer.transportConnectionVisualizer[0] placementPriority 0
par ZigbeeSH.visualizer.canvasVisualizer.transportConnectionVisualizer[0] zIndex 4
par ZigbeeSH.visualizer.canvasVisualizer.failureProtectionConfigurationVisualizer[0] typename "\"inet.visualizer.canvas.configurator.FailureProtectionConfigurationCanvasVisualizer\""
par ZigbeeSH.visualizer.canvasVisualizer.failureProtectionConfigurationVisualizer[0] visualizationTargetModule "\"^.^.^\""
par ZigbeeSH.visualizer.canvasVisualizer.failureProtectionConfigurationVisualizer[0] visualizationSubjectModule "\"^.^.^\""
par ZigbeeSH.visualizer.canvasVisualizer.failureProtectionConfigurationVisualizer[0] tags "\"\""
par ZigbeeSH.visualizer.canvasVisualizer.failureProtectionConfigurationVisualizer[0] displayTrees false
par ZigbeeSH.visualizer.canvasVisualizer.failureProtectionConfigurationVisualizer[0] lineColor "\"dark\""
attr enum light,dark
par ZigbeeSH.visualizer.canvasVisualizer.failureProtectionConfigurationVisualizer[0] lineStyle "\"solid\""
par ZigbeeSH.visualizer.canvasVisualizer.failureProtectionConfigurationVisualizer[0] lineWidth 3
par ZigbeeSH.visualizer.canvasVisualizer.failureProtectionConfigurationVisualizer[0] lineSmooth false
par ZigbeeSH.visualizer.canvasVisualizer.failureProtectionConfigurationVisualizer[0] lineShift 16
par ZigbeeSH.visualizer.canvasVisualizer.failureProtectionConfigurationVisualizer[0] lineShiftMode "\"normal\""
par ZigbeeSH.visualizer.canvasVisualizer.failureProtectionConfigurationVisualizer[0] lineContactSpacing 3
par ZigbeeSH.visualizer.canvasVisualizer.failureProtectionConfigurationVisualizer[0] lineContactMode "\"rectangular\""
attr enum circular,rectangular
par ZigbeeSH.visualizer.canvasVisualizer.failureProtectionConfigurationVisualizer[0] failureProtectionConfiguratorModule "\"failureProtectionConfigurator\""
par ZigbeeSH.visualizer.canvasVisualizer.failureProtectionConfigurationVisualizer[0] streamFilter "\"*\""
par ZigbeeSH.visualizer.canvasVisualizer.failureProtectionConfigurationVisualizer[0] zIndex 3
par ZigbeeSH.visualizer.canvasVisualizer.streamRedundancyConfigurationVisualizer[0] typename "\"inet.visualizer.canvas.configurator.StreamRedundancyConfigurationCanvasVisualizer\""
par ZigbeeSH.visualizer.canvasVisualizer.streamRedundancyConfigurationVisualizer[0] visualizationTargetModule "\"^.^.^\""
par ZigbeeSH.visualizer.canvasVisualizer.streamRedundancyConfigurationVisualizer[0] visualizationSubjectModule "\"^.^.^\""
par ZigbeeSH.visualizer.canvasVisualizer.streamRedundancyConfigurationVisualizer[0] tags "\"\""
par ZigbeeSH.visualizer.canvasVisualizer.streamRedundancyConfigurationVisualizer[0] displayTrees false
par ZigbeeSH.visualizer.canvasVisualizer.streamRedundancyConfigurationVisualizer[0] lineColor "\"dark\""
attr enum light,dark
par ZigbeeSH.visualizer.canvasVisualizer.streamRedundancyConfigurationVisualizer[0] lineStyle "\"solid\""
par ZigbeeSH.visualizer.canvasVisualizer.streamRedundancyConfigurationVisualizer[0] lineWidth 3
par ZigbeeSH.visualizer.canvasVisualizer.streamRedundancyConfigurationVisualizer[0] lineSmooth false
par ZigbeeSH.visualizer.canvasVisualizer.streamRedundancyConfigurationVisualizer[0] lineShift 16
par ZigbeeSH.visualizer.canvasVisualizer.streamRedundancyConfigurationVisualizer[0] lineShiftMode "\"normal\""
par ZigbeeSH.visualizer.canvasVisualizer.streamRedundancyConfigurationVisualizer[0] lineContactSpacing 3
par ZigbeeSH.visualizer.canvasVisualizer.streamRedundancyConfigurationVisualizer[0] lineContactMode "\"rectangular\""
attr enum circular,rectangular
par ZigbeeSH.visualizer.canvasVisualizer.streamRedundancyConfigurationVisualizer[0] streamRedundancyConfiguratorModule "\"streamRedundancyConfigurator\""
par ZigbeeSH.visualizer.canvasVisualizer.streamRedundancyConfigurationVisualizer[0] streamFilter "\"*\""
par ZigbeeSH.visualizer.canvasVisualizer.streamRedundancyConfigurationVisualizer[0] zIndex 3
par ZigbeeSH.visualizer.canvasVisualizer typename "\"inet.visualizer.canvas.integrated.IntegratedMultiCanvasVisualizer\""
par ZigbeeSH.visualizer.canvasVisualizer numSceneVisualizers 1
par ZigbeeSH.visualizer.canvasVisualizer numPhysicalEnvironmentVisualizers 1
par ZigbeeSH.visualizer.canvasVisualizer numNetworkNodeVisualizers 1
par ZigbeeSH.visualizer.canvasVisualizer numNetworkConnectionVisualizers 1
par ZigbeeSH.visualizer.canvasVisualizer numMobilityVisualizers 1
par ZigbeeSH.visualizer.canvasVisualizer numStatisticVisualizers 2
par ZigbeeSH.visualizer.canvasVisualizer numInfoVisualizers 1
par ZigbeeSH.visualizer.canvasVisualizer numEnergyStorageVisualizers 1
par ZigbeeSH.visualizer.canvasVisualizer numMediumVisualizers 1
par ZigbeeSH.visualizer.canvasVisualizer numObstacleLossVisualizers 1
par ZigbeeSH.visualizer.canvasVisualizer numPacketDropVisualizers 1
par ZigbeeSH.visualizer.canvasVisualizer numQueueVisualizers 1
par ZigbeeSH.visualizer.canvasVisualizer numGateScheduleVisualizers 1
par ZigbeeSH.visualizer.canvasVisualizer numRadioVisualizers 1
par ZigbeeSH.visualizer.canvasVisualizer numPhysicalLinkVisualizers 1
par ZigbeeSH.visualizer.canvasVisualizer numInterfaceTableVisualizers 1
par ZigbeeSH.visualizer.canvasVisualizer numDataLinkVisualizers 2
par ZigbeeSH.visualizer.canvasVisualizer numLinkBreakVisualizers 1
par ZigbeeSH.visualizer.canvasVisualizer numIeee80211Visualizers 1
par ZigbeeSH.visualizer.canvasVisualizer numNetworkRouteVisualizers 1
par ZigbeeSH.visualizer.canvasVisualizer numRoutingTableVisualizers 1
par ZigbeeSH.visualizer.canvasVisualizer numTransportRouteVisualizers 1
par ZigbeeSH.visualizer.canvasVisualizer numTransportConnectionVisualizers 1
par ZigbeeSH.visualizer.canvasVisualizer numFailureProtectionConfigurationVisualizers 1
par ZigbeeSH.visualizer.canvasVisualizer numStreamRedundancyConfigurationVisualizers 1
par ZigbeeSH.visualizer typename "\"inet.visualizer.common.IntegratedMultiVisualizer\""
par ZigbeeSH typename "\"ZigbeeSH\""

